Program Version,EnergyPlus, Version 9.1.0-08d2e308bb, YMD=2020.04.15 16:05
! This file shows details about the branches, nodes, and other
! elements of the flow connections.
! This file is intended for use in "debugging" potential problems
! that may also be detected by the program, but may be more easily
! identified by "eye".
! This file is also intended to support software which draws a
! schematic diagram of the HVAC system.
! ===============================================================
! #Nodes,<Number of Unique Nodes>
 #Nodes,337
! <Node>,<NodeNumber>,<Node Name>,<Node Fluid Type>,<# Times Node Referenced After Definition>
 Node,1,BASEMENT ZN VAV TERMINAL OUTLET AIR NODE,Air,4
 Node,2,BASEMENT ZN RETURN AIR NODE,Air,2
 Node,3,CORE_BOTTOM ZN VAV TERMINAL OUTLET AIR NODE,Air,4
 Node,4,CORE_BOTTOM ZN RETURN AIR NODE,Air,2
 Node,5,CORE_MID ZN VAV TERMINAL OUTLET AIR NODE,Air,4
 Node,6,CORE_MID ZN RETURN AIR NODE,Air,2
 Node,7,CORE_TOP ZN VAV TERMINAL OUTLET AIR NODE,Air,4
 Node,8,CORE_TOP ZN RETURN AIR NODE,Air,2
 Node,9,DATACENTER_BASEMENT_ZN_6 ZN PSZ-AC DATA CENTER DIFFUSER OUTLET AIR NODE,Air,4
 Node,10,DATACENTER_BASEMENT_ZN_6 ZN RETURN AIR NODE,Air,2
 Node,11,DATACENTER_BOT_ZN_6 ZN PSZ-AC DATA CENTER DIFFUSER OUTLET AIR NODE,Air,4
 Node,12,DATACENTER_BOT_ZN_6 ZN RETURN AIR NODE,Air,2
 Node,13,DATACENTER_MID_ZN_6 ZN PSZ-AC DATA CENTER DIFFUSER OUTLET AIR NODE,Air,4
 Node,14,DATACENTER_MID_ZN_6 ZN RETURN AIR NODE,Air,2
 Node,15,DATACENTER_TOP_ZN_6 ZN PSZ-AC DATA CENTER DIFFUSER OUTLET AIR NODE,Air,4
 Node,16,DATACENTER_TOP_ZN_6 ZN RETURN AIR NODE,Air,2
 Node,17,PERIMETER_BOT_ZN_1 ZN VAV TERMINAL OUTLET AIR NODE,Air,4
 Node,18,PERIMETER_BOT_ZN_1 ZN RETURN AIR NODE,Air,2
 Node,19,PERIMETER_BOT_ZN_2 ZN VAV TERMINAL OUTLET AIR NODE,Air,4
 Node,20,PERIMETER_BOT_ZN_2 ZN RETURN AIR NODE,Air,2
 Node,21,PERIMETER_BOT_ZN_3 ZN VAV TERMINAL OUTLET AIR NODE,Air,4
 Node,22,PERIMETER_BOT_ZN_3 ZN RETURN AIR NODE,Air,2
 Node,23,PERIMETER_BOT_ZN_4 ZN VAV TERMINAL OUTLET AIR NODE,Air,4
 Node,24,PERIMETER_BOT_ZN_4 ZN RETURN AIR NODE,Air,2
 Node,25,PERIMETER_MID_ZN_1 ZN VAV TERMINAL OUTLET AIR NODE,Air,4
 Node,26,PERIMETER_MID_ZN_1 ZN RETURN AIR NODE,Air,2
 Node,27,PERIMETER_MID_ZN_2 ZN VAV TERMINAL OUTLET AIR NODE,Air,4
 Node,28,PERIMETER_MID_ZN_2 ZN RETURN AIR NODE,Air,2
 Node,29,PERIMETER_MID_ZN_3 ZN VAV TERMINAL OUTLET AIR NODE,Air,4
 Node,30,PERIMETER_MID_ZN_3 ZN RETURN AIR NODE,Air,2
 Node,31,PERIMETER_MID_ZN_4 ZN VAV TERMINAL OUTLET AIR NODE,Air,4
 Node,32,PERIMETER_MID_ZN_4 ZN RETURN AIR NODE,Air,2
 Node,33,PERIMETER_TOP_ZN_1 ZN VAV TERMINAL OUTLET AIR NODE,Air,4
 Node,34,PERIMETER_TOP_ZN_1 ZN RETURN AIR NODE,Air,2
 Node,35,PERIMETER_TOP_ZN_2 ZN VAV TERMINAL OUTLET AIR NODE,Air,4
 Node,36,PERIMETER_TOP_ZN_2 ZN RETURN AIR NODE,Air,2
 Node,37,PERIMETER_TOP_ZN_3 ZN VAV TERMINAL OUTLET AIR NODE,Air,4
 Node,38,PERIMETER_TOP_ZN_3 ZN RETURN AIR NODE,Air,2
 Node,39,PERIMETER_TOP_ZN_4 ZN VAV TERMINAL OUTLET AIR NODE,Air,4
 Node,40,PERIMETER_TOP_ZN_4 ZN RETURN AIR NODE,Air,2
 Node,41,CAV_BAS SUPPLY OUTLET NODE,Air,10
 Node,42,CAV_BAS DEMAND INLET NODE,Air,3
 Node,43,DATACENTER_BASEMENT_ZN_6 ZN PSZ-AC DATA CENTER SUPPLY OUTLET NODE,Air,6
 Node,44,DATACENTER_BASEMENT_ZN_6 ZN PSZ-AC DATA CENTER DEMAND INLET NODE,Air,3
 Node,45,DATACENTER_BOT_ZN_6 ZN PSZ-AC DATA CENTER SUPPLY OUTLET NODE,Air,6
 Node,46,DATACENTER_BOT_ZN_6 ZN PSZ-AC DATA CENTER DEMAND INLET NODE,Air,3
 Node,47,DATACENTER_MID_ZN_6 ZN PSZ-AC DATA CENTER SUPPLY OUTLET NODE,Air,6
 Node,48,DATACENTER_MID_ZN_6 ZN PSZ-AC DATA CENTER DEMAND INLET NODE,Air,3
 Node,49,DATACENTER_TOP_ZN_6 ZN PSZ-AC DATA CENTER SUPPLY OUTLET NODE,Air,6
 Node,50,DATACENTER_TOP_ZN_6 ZN PSZ-AC DATA CENTER DEMAND INLET NODE,Air,3
 Node,51,VAV_BOT WITH REHEAT SUPPLY OUTLET NODE,Air,10
 Node,52,VAV_BOT WITH REHEAT DEMAND INLET NODE,Air,3
 Node,53,VAV_MID WITH REHEAT SUPPLY OUTLET NODE,Air,10
 Node,54,VAV_MID WITH REHEAT DEMAND INLET NODE,Air,3
 Node,55,VAV_TOP WITH REHEAT SUPPLY OUTLET NODE,Air,10
 Node,56,VAV_TOP WITH REHEAT DEMAND INLET NODE,Air,3
 Node,57,CAV_BAS SUPPLY INLET NODE,Air,3
 Node,58,CAV_BAS MIXED AIR NODE,Air,5
 Node,59,CAV_BAS CLG COIL OUTLET AIR NODE,Air,5
 Node,60,CAV_BAS MAIN HTG COIL OUTLET AIR NODE,Air,8
 Node,61,DATACENTER_BASEMENT_ZN_6 ZN PSZ-AC DATA CENTER SUPPLY INLET NODE,Air,3
 Node,62,DATACENTER_BASEMENT_ZN_6 ZN PSZ-AC DATA CENTER MIXED AIR NODE,Air,7
 Node,63,DATACENTER_BOT_ZN_6 ZN PSZ-AC DATA CENTER SUPPLY INLET NODE,Air,3
 Node,64,DATACENTER_BOT_ZN_6 ZN PSZ-AC DATA CENTER MIXED AIR NODE,Air,7
 Node,65,DATACENTER_MID_ZN_6 ZN PSZ-AC DATA CENTER SUPPLY INLET NODE,Air,3
 Node,66,DATACENTER_MID_ZN_6 ZN PSZ-AC DATA CENTER MIXED AIR NODE,Air,7
 Node,67,DATACENTER_TOP_ZN_6 ZN PSZ-AC DATA CENTER SUPPLY INLET NODE,Air,3
 Node,68,DATACENTER_TOP_ZN_6 ZN PSZ-AC DATA CENTER MIXED AIR NODE,Air,7
 Node,69,VAV_BOT WITH REHEAT SUPPLY INLET NODE,Air,3
 Node,70,VAV_BOT WITH REHEAT MIXED AIR NODE,Air,5
 Node,71,VAV_BOT WITH REHEAT CLG COIL OUTLET AIR NODE,Air,5
 Node,72,VAV_BOT WITH REHEAT MAIN HTG COIL OUTLET AIR NODE,Air,8
 Node,73,VAV_MID WITH REHEAT SUPPLY INLET NODE,Air,4
 Node,74,VAV_MID WITH REHEAT MIXED AIR NODE,Air,7
 Node,75,VAV_MID WITH REHEAT CLG COIL OUTLET AIR NODE,Air,5
 Node,76,VAV_MID WITH REHEAT MAIN HTG COIL OUTLET AIR NODE,Air,8
 Node,77,VAV_TOP WITH REHEAT SUPPLY INLET NODE,Air,3
 Node,78,VAV_TOP WITH REHEAT MIXED AIR NODE,Air,5
 Node,79,VAV_TOP WITH REHEAT CLG COIL OUTLET AIR NODE,Air,5
 Node,80,VAV_TOP WITH REHEAT MAIN HTG COIL OUTLET AIR NODE,Air,8
 Node,81,CHILLED WATER LOOP SUPPLY INLET NODE,Water,2
 Node,82,CHILLED WATER LOOP PRIMARY PUMP OUTLET WATER NODE,Water,1
 Node,83,90.1-2010 WATERCOOLED  CENTRIFUGAL CHILLER 0 618TONS 0.6KW/TON SUPPLY INLET WATER NODE,Water,2
 Node,84,NODE 1,Water,6
 Node,85,90.1-2010 WATERCOOLED  CENTRIFUGAL CHILLER 0 618TONS 0.6KW/TON SUPPLY OUTLET WATER NODE,Water,3
 Node,86,CHILLED WATER LOOP CHILLER BYPASS INLET WATER NODE,Water,1
 Node,87,CHILLED WATER LOOP CHILLER BYPASS OUTLET WATER NODE,Water,1
 Node,88,CHILLED WATER LOOP SUPPLY OUTLET INLET WATER NODE,Water,1
 Node,89,CHILLED WATER LOOP SUPPLY OUTLET NODE,Water,4
 Node,90,CHILLED WATER LOOP DEMAND INLET NODE,Water,3
 Node,91,CHILLED WATER LOOP DEMAND INLET OUTLET WATER NODE,Water,3
 Node,92,CHILLED WATER LOOP SECONDARY PUMP OUTLET WATER NODE,Water,1
 Node,93,CHILLED WATER LOOP COIL BYPASS INLET WATER NODE,Water,1
 Node,94,CHILLED WATER LOOP COIL BYPASS OUTLET WATER NODE,Water,1
 Node,95,VAV_BOT WITH REHEAT CLG COIL INLET WATER NODE,Water,2
 Node,96,VAV_BOT WITH REHEAT CLG COIL OUTLET WATER NODE,Water,1
 Node,97,VAV_MID WITH REHEAT CLG COIL INLET WATER NODE,Water,2
 Node,98,VAV_MID WITH REHEAT CLG COIL OUTLET WATER NODE,Water,1
 Node,99,VAV_TOP WITH REHEAT CLG COIL INLET WATER NODE,Water,2
 Node,100,VAV_TOP WITH REHEAT CLG COIL OUTLET WATER NODE,Water,1
 Node,101,CAV_BAS CLG COIL INLET WATER NODE,Water,2
 Node,102,CAV_BAS CLG COIL OUTLET WATER NODE,Water,1
 Node,103,CHILLED WATER LOOP DEMAND BYPASS PIPE INLET NODE,Water,1
 Node,104,CHILLED WATER LOOP DEMAND BYPASS PIPE OUTLET NODE,Water,1
 Node,105,CHILLED WATER LOOP DEMAND OUTLET INLET WATER NODE,Water,1
 Node,106,CHILLED WATER LOOP DEMAND OUTLET NODE,Water,2
 Node,107,CONDENSER WATER LOOP SUPPLY INLET NODE,Water,2
 Node,108,CONDENSER WATER LOOP CONSTANT PUMP OUTLET WATER NODE,Water,1
 Node,109,CENTRIFUGAL FAN CYCLING OPEN COOLING TOWER 38.2 GPM/HP INLET WATER NODE,Water,1
 Node,110,CENTRIFUGAL FAN CYCLING OPEN COOLING TOWER 38.2 GPM/HP OUTLET WATER NODE,Water,1
 Node,111,CONDENSER WATER LOOP COOLING TOWER BYPASS INLET WATER NODE,Water,1
 Node,112,CONDENSER WATER LOOP COOLING TOWER BYPASS OUTLET WATER NODE,Water,1
 Node,113,CONDENSER WATER LOOP SUPPLY OUTLET INLET WATER NODE,Water,1
 Node,114,CONDENSER WATER LOOP SUPPLY OUTLET NODE,Water,4
 Node,115,CONDENSER WATER LOOP DEMAND INLET NODE,Water,2
 Node,116,CONDENSER WATER LOOP DEMAND INLET OUTLET WATER NODE,Water,1
 Node,117,CONDENSER WATER LOOP CHILLER BYPASS INLET WATER NODE,Water,1
 Node,118,CONDENSER WATER LOOP CHILLER BYPASS OUTLET WATER NODE,Water,1
 Node,119,90.1-2010 WATERCOOLED  CENTRIFUGAL CHILLER 0 618TONS 0.6KW/TON DEMAND INLET WATER NODE,Water,1
 Node,120,90.1-2010 WATERCOOLED  CENTRIFUGAL CHILLER 0 618TONS 0.6KW/TON DEMAND OUTLET WATER NODE,Water,1
 Node,121,CONDENSER WATER LOOP DEMAND BYPASS PIPE INLET NODE,Water,1
 Node,122,CONDENSER WATER LOOP DEMAND BYPASS PIPE OUTLET NODE,Water,1
 Node,123,CONDENSER WATER LOOP DEMAND OUTLET INLET WATER NODE,Water,1
 Node,124,CONDENSER WATER LOOP DEMAND OUTLET NODE,Water,2
 Node,125,HEAT PUMP LOOP SUPPLY INLET NODE,Water,2
 Node,126,HEAT PUMP LOOP PUMP OUTLET WATER NODE,Water,1
 Node,127,HEAT PUMP LOOP SUPPLEMENTAL BOILER 1530KBTU/HR 0.8 THERMAL EFF INLET WATER NODE,Water,2
 Node,128,HEAT PUMP LOOP SUPPLEMENTAL BOILER 1530KBTU/HR 0.8 THERMAL EFF OUTLET WATER NODE,Water,3
 Node,129,HEAT PUMP LOOP SUPPLY BYPASS INLET WATER NODE,Water,1
 Node,130,HEAT PUMP LOOP SUPPLY BYPASS OUTLET WATER NODE,Water,1
 Node,131,HEAT PUMP LOOP CENTRAL TOWER 20.0 GPM/HP INLET WATER NODE,Water,2
 Node,132,HEAT PUMP LOOP CENTRAL TOWER 20.0 GPM/HP OUTLET WATER NODE,Water,3
 Node,133,HEAT PUMP LOOP SUPPLY OUTLET INLET WATER NODE,Water,1
 Node,134,HEAT PUMP LOOP SUPPLY OUTLET NODE,Water,4
 Node,135,HEAT PUMP LOOP DEMAND INLET NODE,Water,2
 Node,136,HEAT PUMP LOOP DEMAND INLET OUTLET WATER NODE,Water,1
 Node,137,HEAT PUMP LOOP DEMAND BYPASS INLET WATER NODE,Water,1
 Node,138,HEAT PUMP LOOP DEMAND BYPASS OUTLET WATER NODE,Water,1
 Node,139,DATACENTER_BASEMENT_ZN_6 ZN PSZ-AC DATA CENTER WATER-TO-AIR HP HTG COIL INLET WATER NODE,Water,1
 Node,140,DATACENTER_BASEMENT_ZN_6 ZN PSZ-AC DATA CENTER WATER-TO-AIR HP HTG COIL OUTLET WATER NODE,Water,1
 Node,141,DATACENTER_BASEMENT_ZN_6 ZN PSZ-AC DATA CENTER WATER-TO-AIR HP CLG COIL INLET WATER NODE,Water,1
 Node,142,DATACENTER_BASEMENT_ZN_6 ZN PSZ-AC DATA CENTER WATER-TO-AIR HP CLG COIL OUTLET WATER NODE,Water,1
 Node,143,DATACENTER_BOT_ZN_6 ZN PSZ-AC DATA CENTER WATER-TO-AIR HP HTG COIL INLET WATER NODE,Water,1
 Node,144,DATACENTER_BOT_ZN_6 ZN PSZ-AC DATA CENTER WATER-TO-AIR HP HTG COIL OUTLET WATER NODE,Water,1
 Node,145,DATACENTER_BOT_ZN_6 ZN PSZ-AC DATA CENTER WATER-TO-AIR HP CLG COIL INLET WATER NODE,Water,1
 Node,146,DATACENTER_BOT_ZN_6 ZN PSZ-AC DATA CENTER WATER-TO-AIR HP CLG COIL OUTLET WATER NODE,Water,1
 Node,147,DATACENTER_MID_ZN_6 ZN PSZ-AC DATA CENTER WATER-TO-AIR HP HTG COIL INLET WATER NODE,Water,1
 Node,148,DATACENTER_MID_ZN_6 ZN PSZ-AC DATA CENTER WATER-TO-AIR HP HTG COIL OUTLET WATER NODE,Water,1
 Node,149,DATACENTER_MID_ZN_6 ZN PSZ-AC DATA CENTER WATER-TO-AIR HP CLG COIL INLET WATER NODE,Water,1
 Node,150,DATACENTER_MID_ZN_6 ZN PSZ-AC DATA CENTER WATER-TO-AIR HP CLG COIL OUTLET WATER NODE,Water,1
 Node,151,DATACENTER_TOP_ZN_6 ZN PSZ-AC DATA CENTER WATER-TO-AIR HP HTG COIL INLET WATER NODE,Water,1
 Node,152,DATACENTER_TOP_ZN_6 ZN PSZ-AC DATA CENTER WATER-TO-AIR HP HTG COIL OUTLET WATER NODE,Water,1
 Node,153,DATACENTER_TOP_ZN_6 ZN PSZ-AC DATA CENTER WATER-TO-AIR HP CLG COIL INLET WATER NODE,Water,1
 Node,154,DATACENTER_TOP_ZN_6 ZN PSZ-AC DATA CENTER WATER-TO-AIR HP CLG COIL OUTLET WATER NODE,Water,1
 Node,155,HEAT PUMP LOOP DEMAND BYPASS PIPE INLET NODE,Water,1
 Node,156,HEAT PUMP LOOP DEMAND BYPASS PIPE OUTLET NODE,Water,1
 Node,157,HEAT PUMP LOOP DEMAND OUTLET INLET WATER NODE,Water,1
 Node,158,HEAT PUMP LOOP DEMAND OUTLET NODE,Water,2
 Node,159,HOT WATER LOOP SUPPLY INLET NODE,Water,2
 Node,160,HOT WATER LOOP PUMP OUTLET WATER NODE,Water,1
 Node,161,BOILER 6158KBTU/HR 0.8 THERMAL EFF INLET WATER NODE,Water,1
 Node,162,BOILER 6158KBTU/HR 0.8 THERMAL EFF OUTLET WATER NODE,Water,1
 Node,163,HOT WATER LOOP SUPPLY EQUIPMENT BYPASS INLET WATER NODE,Water,1
 Node,164,HOT WATER LOOP SUPPLY EQUIPMENT BYPASS OUTLET WATER NODE,Water,1
 Node,165,HOT WATER LOOP SUPPLY OUTLET INLET WATER NODE,Water,1
 Node,166,HOT WATER LOOP SUPPLY OUTLET NODE,Water,4
 Node,167,HOT WATER LOOP DEMAND INLET NODE,Water,2
 Node,168,HOT WATER LOOP DEMAND INLET OUTLET WATER NODE,Water,1
 Node,169,HOT WATER LOOP COIL BYPASS INLET WATER NODE,Water,1
 Node,170,HOT WATER LOOP COIL BYPASS OUTLET WATER NODE,Water,1
 Node,171,VAV_BOT WITH REHEAT MAIN HTG COIL INLET WATER NODE,Water,2
 Node,172,VAV_BOT WITH REHEAT MAIN HTG COIL OUTLET WATER NODE,Water,1
 Node,173,PERIMETER_BOT_ZN_1 ZN REHEAT COIL INLET WATER NODE,Water,1
 Node,174,PERIMETER_BOT_ZN_1 ZN REHEAT COIL OUTLET WATER NODE,Water,1
 Node,175,PERIMETER_BOT_ZN_2 ZN REHEAT COIL INLET WATER NODE,Water,1
 Node,176,PERIMETER_BOT_ZN_2 ZN REHEAT COIL OUTLET WATER NODE,Water,1
 Node,177,PERIMETER_BOT_ZN_3 ZN REHEAT COIL INLET WATER NODE,Water,1
 Node,178,PERIMETER_BOT_ZN_3 ZN REHEAT COIL OUTLET WATER NODE,Water,1
 Node,179,PERIMETER_BOT_ZN_4 ZN REHEAT COIL INLET WATER NODE,Water,1
 Node,180,PERIMETER_BOT_ZN_4 ZN REHEAT COIL OUTLET WATER NODE,Water,1
 Node,181,CORE_BOTTOM ZN REHEAT COIL INLET WATER NODE,Water,1
 Node,182,CORE_BOTTOM ZN REHEAT COIL OUTLET WATER NODE,Water,1
 Node,183,VAV_MID WITH REHEAT MAIN HTG COIL INLET WATER NODE,Water,2
 Node,184,VAV_MID WITH REHEAT MAIN HTG COIL OUTLET WATER NODE,Water,1
 Node,185,PERIMETER_MID_ZN_1 ZN REHEAT COIL INLET WATER NODE,Water,1
 Node,186,PERIMETER_MID_ZN_1 ZN REHEAT COIL OUTLET WATER NODE,Water,1
 Node,187,PERIMETER_MID_ZN_2 ZN REHEAT COIL INLET WATER NODE,Water,1
 Node,188,PERIMETER_MID_ZN_2 ZN REHEAT COIL OUTLET WATER NODE,Water,1
 Node,189,PERIMETER_MID_ZN_3 ZN REHEAT COIL INLET WATER NODE,Water,1
 Node,190,PERIMETER_MID_ZN_3 ZN REHEAT COIL OUTLET WATER NODE,Water,1
 Node,191,PERIMETER_MID_ZN_4 ZN REHEAT COIL INLET WATER NODE,Water,1
 Node,192,PERIMETER_MID_ZN_4 ZN REHEAT COIL OUTLET WATER NODE,Water,1
 Node,193,CORE_MID ZN REHEAT COIL INLET WATER NODE,Water,1
 Node,194,CORE_MID ZN REHEAT COIL OUTLET WATER NODE,Water,1
 Node,195,VAV_TOP WITH REHEAT MAIN HTG COIL INLET WATER NODE,Water,2
 Node,196,VAV_TOP WITH REHEAT MAIN HTG COIL OUTLET WATER NODE,Water,1
 Node,197,PERIMETER_TOP_ZN_1 ZN REHEAT COIL INLET WATER NODE,Water,1
 Node,198,PERIMETER_TOP_ZN_1 ZN REHEAT COIL OUTLET WATER NODE,Water,1
 Node,199,PERIMETER_TOP_ZN_2 ZN REHEAT COIL INLET WATER NODE,Water,1
 Node,200,PERIMETER_TOP_ZN_2 ZN REHEAT COIL OUTLET WATER NODE,Water,1
 Node,201,PERIMETER_TOP_ZN_3 ZN REHEAT COIL INLET WATER NODE,Water,1
 Node,202,PERIMETER_TOP_ZN_3 ZN REHEAT COIL OUTLET WATER NODE,Water,1
 Node,203,PERIMETER_TOP_ZN_4 ZN REHEAT COIL INLET WATER NODE,Water,1
 Node,204,PERIMETER_TOP_ZN_4 ZN REHEAT COIL OUTLET WATER NODE,Water,1
 Node,205,CORE_TOP ZN REHEAT COIL INLET WATER NODE,Water,1
 Node,206,CORE_TOP ZN REHEAT COIL OUTLET WATER NODE,Water,1
 Node,207,CAV_BAS MAIN HTG COIL INLET WATER NODE,Water,2
 Node,208,CAV_BAS MAIN HTG COIL OUTLET WATER NODE,Water,1
 Node,209,BASEMENT ZN REHEAT COIL INLET WATER NODE,Water,1
 Node,210,BASEMENT ZN REHEAT COIL OUTLET WATER NODE,Water,1
 Node,211,HOT WATER LOOP DEMAND BYPASS PIPE INLET NODE,Water,1
 Node,212,HOT WATER LOOP DEMAND BYPASS PIPE OUTLET NODE,Water,1
 Node,213,HOT WATER LOOP DEMAND OUTLET INLET WATER NODE,Water,1
 Node,214,HOT WATER LOOP DEMAND OUTLET NODE,Water,2
 Node,215,MAIN SERVICE WATER LOOP SUPPLY INLET NODE,Water,2
 Node,216,MAIN SERVICE WATER LOOP CIRCULATOR PUMP OUTLET WATER NODE,Water,1
 Node,217,300GAL NATURAL GAS WATER HEATER - 300KBTU/HR 0.804 THERM EFF SUPPLY INLET WATER NODE,Water,1
 Node,218,300GAL NATURAL GAS WATER HEATER - 300KBTU/HR 0.804 THERM EFF SUPPLY OUTLET WATER NODE,Water,1
 Node,219,PIPE ADIABATIC 1 INLET WATER NODE,Water,1
 Node,220,PIPE ADIABATIC 1 OUTLET WATER NODE,Water,1
 Node,221,PIPE ADIABATIC 3 INLET WATER NODE,Water,1
 Node,222,MAIN SERVICE WATER LOOP SUPPLY OUTLET NODE,Water,4
 Node,223,MAIN SERVICE WATER LOOP DEMAND INLET NODE,Water,2
 Node,224,MAIN SERVICE WATER LOOP DEMAND INLET PIPE NODE,Water,1
 Node,225,PIPE ADIABATIC 2 INLET WATER NODE,Water,1
 Node,226,PIPE ADIABATIC 2 OUTLET WATER NODE,Water,1
 Node,227,CORE_BOTTOM WUC 0.58GPM AT 140F INLET WATER NODE,Water,1
 Node,228,CORE_BOTTOM WUC 0.58GPM AT 140F OUTLET WATER NODE,Water,1
 Node,229,CORE_MID WUC 0.58GPM AT 140F INLET WATER NODE,Water,1
 Node,230,CORE_MID WUC 0.58GPM AT 140F OUTLET WATER NODE,Water,1
 Node,231,CORE_TOP WUC 0.58GPM AT 140F INLET WATER NODE,Water,1
 Node,232,CORE_TOP WUC 0.58GPM AT 140F OUTLET WATER NODE,Water,1
 Node,233,MAIN SERVICE WATER LOOP DEMAND BYPASS PIPE INLET NODE,Water,1
 Node,234,MAIN SERVICE WATER LOOP DEMAND BYPASS PIPE OUTLET NODE,Water,1
 Node,235,PIPE ADIABATIC 4 INLET WATER NODE,Water,1
 Node,236,MAIN SERVICE WATER LOOP DEMAND OUTLET NODE,Water,2
 Node,237,BASEMENT ZN ZONE AIR NODE,Air,0
 Node,238,CORE_BOTTOM ZN ZONE AIR NODE,Air,0
 Node,239,CORE_MID ZN ZONE AIR NODE,Air,0
 Node,240,CORE_TOP ZN ZONE AIR NODE,Air,0
 Node,241,DATACENTER_BASEMENT_ZN_6 ZN ZONE AIR NODE,Air,1
 Node,242,DATACENTER_BOT_ZN_6 ZN ZONE AIR NODE,Air,1
 Node,243,DATACENTER_MID_ZN_6 ZN ZONE AIR NODE,Air,1
 Node,244,DATACENTER_TOP_ZN_6 ZN ZONE AIR NODE,Air,1
 Node,245,PERIMETER_BOT_ZN_1 ZN ZONE AIR NODE,Air,0
 Node,246,PERIMETER_BOT_ZN_2 ZN ZONE AIR NODE,Air,0
 Node,247,PERIMETER_BOT_ZN_3 ZN ZONE AIR NODE,Air,0
 Node,248,PERIMETER_BOT_ZN_4 ZN ZONE AIR NODE,Air,0
 Node,249,PERIMETER_MID_ZN_1 ZN ZONE AIR NODE,Air,0
 Node,250,PERIMETER_MID_ZN_2 ZN ZONE AIR NODE,Air,0
 Node,251,PERIMETER_MID_ZN_3 ZN ZONE AIR NODE,Air,0
 Node,252,PERIMETER_MID_ZN_4 ZN ZONE AIR NODE,Air,0
 Node,253,PERIMETER_TOP_ZN_1 ZN ZONE AIR NODE,Air,0
 Node,254,PERIMETER_TOP_ZN_2 ZN ZONE AIR NODE,Air,0
 Node,255,PERIMETER_TOP_ZN_3 ZN ZONE AIR NODE,Air,0
 Node,256,PERIMETER_TOP_ZN_4 ZN ZONE AIR NODE,Air,0
 Node,257,CAV_BAS DEMAND OUTLET NODE,Air,2
 Node,258,DATACENTER_BASEMENT_ZN_6 ZN PSZ-AC DATA CENTER DEMAND OUTLET NODE,Air,2
 Node,259,DATACENTER_BOT_ZN_6 ZN PSZ-AC DATA CENTER DEMAND OUTLET NODE,Air,2
 Node,260,DATACENTER_MID_ZN_6 ZN PSZ-AC DATA CENTER DEMAND OUTLET NODE,Air,2
 Node,261,DATACENTER_TOP_ZN_6 ZN PSZ-AC DATA CENTER DEMAND OUTLET NODE,Air,2
 Node,262,VAV_BOT WITH REHEAT DEMAND OUTLET NODE,Air,2
 Node,263,VAV_MID WITH REHEAT DEMAND OUTLET NODE,Air,2
 Node,264,VAV_TOP WITH REHEAT DEMAND OUTLET NODE,Air,2
 Node,265,CAV_BAS OUTDOOR AIR NODE,Air,2
 Node,266,DATACENTER_BASEMENT_ZN_6 ZN PSZ-AC DATA CENTER OUTDOOR AIR NODE,Air,2
 Node,267,DATACENTER_BOT_ZN_6 ZN PSZ-AC DATA CENTER OUTDOOR AIR NODE,Air,2
 Node,268,DATACENTER_MID_ZN_6 ZN PSZ-AC DATA CENTER OUTDOOR AIR NODE,Air,2
 Node,269,DATACENTER_TOP_ZN_6 ZN PSZ-AC DATA CENTER OUTDOOR AIR NODE,Air,2
 Node,270,VAV_BOT WITH REHEAT OUTDOOR AIR NODE,Air,2
 Node,271,VAV_MID WITH REHEAT OUTDOOR AIR NODE,Air,3
 Node,272,VAV_TOP WITH REHEAT OUTDOOR AIR NODE,Air,2
 Node,273,MODEL OUTDOOR AIR NODE,Air,0
 Node,274,DATACENTER_BASEMENT_ZN_6 ZN UNITARY HP FAN - COOLING COIL NODE,Air,2
 Node,275,DATACENTER_BOT_ZN_6 ZN UNITARY HP FAN - COOLING COIL NODE,Air,2
 Node,276,DATACENTER_MID_ZN_6 ZN UNITARY HP FAN - COOLING COIL NODE,Air,2
 Node,277,DATACENTER_TOP_ZN_6 ZN UNITARY HP FAN - COOLING COIL NODE,Air,2
 Node,278,VAV_MID WITH REHEAT ERV PRIMARY OUTLET AIR NODE,Air,2
 Node,279,BASEMENT ZN VAV TERMINAL INLET AIR NODE,Air,1
 Node,280,DATACENTER_BASEMENT_ZN_6 ZN PSZ-AC DATA CENTER DIFFUSER INLET AIR NODE,Air,1
 Node,281,DATACENTER_BOT_ZN_6 ZN PSZ-AC DATA CENTER DIFFUSER INLET AIR NODE,Air,1
 Node,282,DATACENTER_MID_ZN_6 ZN PSZ-AC DATA CENTER DIFFUSER INLET AIR NODE,Air,1
 Node,283,DATACENTER_TOP_ZN_6 ZN PSZ-AC DATA CENTER DIFFUSER INLET AIR NODE,Air,1
 Node,284,PERIMETER_BOT_ZN_1 ZN VAV TERMINAL INLET AIR NODE,Air,1
 Node,285,PERIMETER_BOT_ZN_2 ZN VAV TERMINAL INLET AIR NODE,Air,1
 Node,286,PERIMETER_BOT_ZN_3 ZN VAV TERMINAL INLET AIR NODE,Air,1
 Node,287,PERIMETER_BOT_ZN_4 ZN VAV TERMINAL INLET AIR NODE,Air,1
 Node,288,CORE_BOTTOM ZN VAV TERMINAL INLET AIR NODE,Air,1
 Node,289,PERIMETER_MID_ZN_1 ZN VAV TERMINAL INLET AIR NODE,Air,1
 Node,290,PERIMETER_MID_ZN_2 ZN VAV TERMINAL INLET AIR NODE,Air,1
 Node,291,PERIMETER_MID_ZN_3 ZN VAV TERMINAL INLET AIR NODE,Air,1
 Node,292,PERIMETER_MID_ZN_4 ZN VAV TERMINAL INLET AIR NODE,Air,1
 Node,293,CORE_MID ZN VAV TERMINAL INLET AIR NODE,Air,1
 Node,294,PERIMETER_TOP_ZN_1 ZN VAV TERMINAL INLET AIR NODE,Air,1
 Node,295,PERIMETER_TOP_ZN_2 ZN VAV TERMINAL INLET AIR NODE,Air,1
 Node,296,PERIMETER_TOP_ZN_3 ZN VAV TERMINAL INLET AIR NODE,Air,1
 Node,297,PERIMETER_TOP_ZN_4 ZN VAV TERMINAL INLET AIR NODE,Air,1
 Node,298,CORE_TOP ZN VAV TERMINAL INLET AIR NODE,Air,1
 Node,299,BASEMENT ZN VAV TERMINAL DAMPER OUTLET,Air,1
 Node,300,CORE_BOTTOM ZN VAV TERMINAL DAMPER OUTLET,Air,1
 Node,301,CORE_MID ZN VAV TERMINAL DAMPER OUTLET,Air,1
 Node,302,CORE_TOP ZN VAV TERMINAL DAMPER OUTLET,Air,1
 Node,303,PERIMETER_BOT_ZN_1 ZN VAV TERMINAL DAMPER OUTLET,Air,1
 Node,304,PERIMETER_BOT_ZN_2 ZN VAV TERMINAL DAMPER OUTLET,Air,1
 Node,305,PERIMETER_BOT_ZN_3 ZN VAV TERMINAL DAMPER OUTLET,Air,1
 Node,306,PERIMETER_BOT_ZN_4 ZN VAV TERMINAL DAMPER OUTLET,Air,1
 Node,307,PERIMETER_MID_ZN_1 ZN VAV TERMINAL DAMPER OUTLET,Air,1
 Node,308,PERIMETER_MID_ZN_2 ZN VAV TERMINAL DAMPER OUTLET,Air,1
 Node,309,PERIMETER_MID_ZN_3 ZN VAV TERMINAL DAMPER OUTLET,Air,1
 Node,310,PERIMETER_MID_ZN_4 ZN VAV TERMINAL DAMPER OUTLET,Air,1
 Node,311,PERIMETER_TOP_ZN_1 ZN VAV TERMINAL DAMPER OUTLET,Air,1
 Node,312,PERIMETER_TOP_ZN_2 ZN VAV TERMINAL DAMPER OUTLET,Air,1
 Node,313,PERIMETER_TOP_ZN_3 ZN VAV TERMINAL DAMPER OUTLET,Air,1
 Node,314,PERIMETER_TOP_ZN_4 ZN VAV TERMINAL DAMPER OUTLET,Air,1
 Node,315,NODE 88,Air,1
 Node,316,NODE 127,Air,1
 Node,317,NODE 166,Air,1
 Node,318,GROUNDFLOOR_PLENUM ZN ZONE AIR NODE,Air,0
 Node,319,MIDFLOOR_PLENUM ZN ZONE AIR NODE,Air,0
 Node,320,TOPFLOOR_PLENUM ZN ZONE AIR NODE,Air,0
 Node,321,CAV_BAS RELIEF AIR NODE,Air,1
 Node,322,DATACENTER_BASEMENT_ZN_6 ZN PSZ-AC DATA CENTER RELIEF AIR NODE,Air,1
 Node,323,DATACENTER_BOT_ZN_6 ZN PSZ-AC DATA CENTER RELIEF AIR NODE,Air,1
 Node,324,DATACENTER_MID_ZN_6 ZN PSZ-AC DATA CENTER RELIEF AIR NODE,Air,1
 Node,325,DATACENTER_TOP_ZN_6 ZN PSZ-AC DATA CENTER RELIEF AIR NODE,Air,1
 Node,326,VAV_BOT WITH REHEAT RELIEF AIR NODE,Air,1
 Node,327,VAV_MID WITH REHEAT ERV SECONDARY INLET AIR NODE,Air,2
 Node,328,VAV_TOP WITH REHEAT RELIEF AIR NODE,Air,1
 Node,329,DATACENTER_BASEMENT_ZN_6 ZN UNITARY HP COOLING COIL - HEATING COIL NODE,Air,1
 Node,330,DATACENTER_BOT_ZN_6 ZN UNITARY HP COOLING COIL - HEATING COIL NODE,Air,1
 Node,331,DATACENTER_MID_ZN_6 ZN UNITARY HP COOLING COIL - HEATING COIL NODE,Air,1
 Node,332,DATACENTER_TOP_ZN_6 ZN UNITARY HP COOLING COIL - HEATING COIL NODE,Air,1
 Node,333,DATACENTER_BASEMENT_ZN_6 ZN UNITARY HP HEATING COIL - SUPPLEMENTAL COIL NODE,Air,1
 Node,334,DATACENTER_BOT_ZN_6 ZN UNITARY HP HEATING COIL - SUPPLEMENTAL COIL NODE,Air,1
 Node,335,DATACENTER_MID_ZN_6 ZN UNITARY HP HEATING COIL - SUPPLEMENTAL COIL NODE,Air,1
 Node,336,DATACENTER_TOP_ZN_6 ZN UNITARY HP HEATING COIL - SUPPLEMENTAL COIL NODE,Air,1
 Node,337,VAV_MID WITH REHEAT RELIEF AIR NODE,Air,0
! ===============================================================
! Suspicious nodes have 0 references.  It is normal for some nodes, however.
! Listing nodes with 0 references (culled from previous list):
! <Suspicious Node>,<NodeNumber>,<Node Name>,<Node Fluid Type>,<# Times Node Referenced After Definition>
 Suspicious Node,237,BASEMENT ZN ZONE AIR NODE,Air,0
 Suspicious Node,238,CORE_BOTTOM ZN ZONE AIR NODE,Air,0
 Suspicious Node,239,CORE_MID ZN ZONE AIR NODE,Air,0
 Suspicious Node,240,CORE_TOP ZN ZONE AIR NODE,Air,0
 Suspicious Node,245,PERIMETER_BOT_ZN_1 ZN ZONE AIR NODE,Air,0
 Suspicious Node,246,PERIMETER_BOT_ZN_2 ZN ZONE AIR NODE,Air,0
 Suspicious Node,247,PERIMETER_BOT_ZN_3 ZN ZONE AIR NODE,Air,0
 Suspicious Node,248,PERIMETER_BOT_ZN_4 ZN ZONE AIR NODE,Air,0
 Suspicious Node,249,PERIMETER_MID_ZN_1 ZN ZONE AIR NODE,Air,0
 Suspicious Node,250,PERIMETER_MID_ZN_2 ZN ZONE AIR NODE,Air,0
 Suspicious Node,251,PERIMETER_MID_ZN_3 ZN ZONE AIR NODE,Air,0
 Suspicious Node,252,PERIMETER_MID_ZN_4 ZN ZONE AIR NODE,Air,0
 Suspicious Node,253,PERIMETER_TOP_ZN_1 ZN ZONE AIR NODE,Air,0
 Suspicious Node,254,PERIMETER_TOP_ZN_2 ZN ZONE AIR NODE,Air,0
 Suspicious Node,255,PERIMETER_TOP_ZN_3 ZN ZONE AIR NODE,Air,0
 Suspicious Node,256,PERIMETER_TOP_ZN_4 ZN ZONE AIR NODE,Air,0
 Suspicious Node,273,MODEL OUTDOOR AIR NODE,Air,0
 Suspicious Node,318,GROUNDFLOOR_PLENUM ZN ZONE AIR NODE,Air,0
 Suspicious Node,319,MIDFLOOR_PLENUM ZN ZONE AIR NODE,Air,0
 Suspicious Node,320,TOPFLOOR_PLENUM ZN ZONE AIR NODE,Air,0
 Suspicious Node,337,VAV_MID WITH REHEAT RELIEF AIR NODE,Air,0
! ===============================================================
! <#Branch Lists>,<Number of Branch Lists>
 #Branch Lists,18
! <Branch List>,<Branch List Count>,<Branch List Name>,<Loop Name>,<Loop Type>,<Number of Branches>
! <Branch>,<Branch Count>,<Branch Name>,<Loop Name>,<Loop Type>,<Branch Inlet Node Name>,<Branch Outlet Node Name>
 Branch List,1,CAV_BAS SUPPLY BRANCHES,CAV_BAS,Air,1
   Branch,1,CAV_BAS MAIN BRANCH,CAV_BAS,Air,CAV_BAS SUPPLY INLET NODE,CAV_BAS SUPPLY OUTLET NODE
 Branch List,2,DATACENTER_BASEMENT_ZN_6 ZN PSZ-AC DATA CENTER SUPPLY BRANCHES,DATACENTER_BASEMENT_ZN_6 ZN PSZ-AC DATA CENTER,Air,1
   Branch,1,DATACENTER_BASEMENT_ZN_6 ZN PSZ-AC DATA CENTER MAIN BRANCH,DATACENTER_BASEMENT_ZN_6 ZN PSZ-AC DATA CENTER,Air,DATACENTER_BASEMENT_ZN_6 ZN PSZ-AC DATA CENTER SUPPLY INLET NODE,DATACENTER_BASEMENT_ZN_6 ZN PSZ-AC DATA CENTER SUPPLY OUTLET NODE
 Branch List,3,DATACENTER_BOT_ZN_6 ZN PSZ-AC DATA CENTER SUPPLY BRANCHES,DATACENTER_BOT_ZN_6 ZN PSZ-AC DATA CENTER,Air,1
   Branch,1,DATACENTER_BOT_ZN_6 ZN PSZ-AC DATA CENTER MAIN BRANCH,DATACENTER_BOT_ZN_6 ZN PSZ-AC DATA CENTER,Air,DATACENTER_BOT_ZN_6 ZN PSZ-AC DATA CENTER SUPPLY INLET NODE,DATACENTER_BOT_ZN_6 ZN PSZ-AC DATA CENTER SUPPLY OUTLET NODE
 Branch List,4,DATACENTER_MID_ZN_6 ZN PSZ-AC DATA CENTER SUPPLY BRANCHES,DATACENTER_MID_ZN_6 ZN PSZ-AC DATA CENTER,Air,1
   Branch,1,DATACENTER_MID_ZN_6 ZN PSZ-AC DATA CENTER MAIN BRANCH,DATACENTER_MID_ZN_6 ZN PSZ-AC DATA CENTER,Air,DATACENTER_MID_ZN_6 ZN PSZ-AC DATA CENTER SUPPLY INLET NODE,DATACENTER_MID_ZN_6 ZN PSZ-AC DATA CENTER SUPPLY OUTLET NODE
 Branch List,5,DATACENTER_TOP_ZN_6 ZN PSZ-AC DATA CENTER SUPPLY BRANCHES,DATACENTER_TOP_ZN_6 ZN PSZ-AC DATA CENTER,Air,1
   Branch,1,DATACENTER_TOP_ZN_6 ZN PSZ-AC DATA CENTER MAIN BRANCH,DATACENTER_TOP_ZN_6 ZN PSZ-AC DATA CENTER,Air,DATACENTER_TOP_ZN_6 ZN PSZ-AC DATA CENTER SUPPLY INLET NODE,DATACENTER_TOP_ZN_6 ZN PSZ-AC DATA CENTER SUPPLY OUTLET NODE
 Branch List,6,VAV_BOT WITH REHEAT SUPPLY BRANCHES,VAV_BOT WITH REHEAT,Air,1
   Branch,1,VAV_BOT WITH REHEAT MAIN BRANCH,VAV_BOT WITH REHEAT,Air,VAV_BOT WITH REHEAT SUPPLY INLET NODE,VAV_BOT WITH REHEAT SUPPLY OUTLET NODE
 Branch List,7,VAV_MID WITH REHEAT SUPPLY BRANCHES,VAV_MID WITH REHEAT,Air,1
   Branch,1,VAV_MID WITH REHEAT MAIN BRANCH,VAV_MID WITH REHEAT,Air,VAV_MID WITH REHEAT SUPPLY INLET NODE,VAV_MID WITH REHEAT SUPPLY OUTLET NODE
 Branch List,8,VAV_TOP WITH REHEAT SUPPLY BRANCHES,VAV_TOP WITH REHEAT,Air,1
   Branch,1,VAV_TOP WITH REHEAT MAIN BRANCH,VAV_TOP WITH REHEAT,Air,VAV_TOP WITH REHEAT SUPPLY INLET NODE,VAV_TOP WITH REHEAT SUPPLY OUTLET NODE
 Branch List,9,CHILLED WATER LOOP SUPPLY BRANCHES,CHILLED WATER LOOP,Plant Supply,4
   Branch,1,CHILLED WATER LOOP SUPPLY INLET BRANCH,CHILLED WATER LOOP,Plant Supply,CHILLED WATER LOOP SUPPLY INLET NODE,CHILLED WATER LOOP PRIMARY PUMP OUTLET WATER NODE
   Branch,2,CHILLED WATER LOOP SUPPLY BRANCH 1,CHILLED WATER LOOP,Plant Supply,90.1-2010 WATERCOOLED  CENTRIFUGAL CHILLER 0 618TONS 0.6KW/TON SUPPLY INLET WATER NODE,90.1-2010 WATERCOOLED  CENTRIFUGAL CHILLER 0 618TONS 0.6KW/TON SUPPLY OUTLET WATER NODE
   Branch,3,CHILLED WATER LOOP SUPPLY BRANCH 2,CHILLED WATER LOOP,Plant Supply,CHILLED WATER LOOP CHILLER BYPASS INLET WATER NODE,CHILLED WATER LOOP CHILLER BYPASS OUTLET WATER NODE
   Branch,4,CHILLED WATER LOOP SUPPLY OUTLET BRANCH,CHILLED WATER LOOP,Plant Supply,CHILLED WATER LOOP SUPPLY OUTLET INLET WATER NODE,CHILLED WATER LOOP SUPPLY OUTLET NODE
 Branch List,10,CHILLED WATER LOOP DEMAND BRANCHES,CHILLED WATER LOOP,Plant Demand,8
   Branch,1,CHILLED WATER LOOP DEMAND INLET BRANCH,CHILLED WATER LOOP,Plant Demand,CHILLED WATER LOOP DEMAND INLET NODE,CHILLED WATER LOOP SECONDARY PUMP OUTLET WATER NODE
   Branch,2,CHILLED WATER LOOP DEMAND BRANCH 1,CHILLED WATER LOOP,Plant Demand,CHILLED WATER LOOP COIL BYPASS INLET WATER NODE,CHILLED WATER LOOP COIL BYPASS OUTLET WATER NODE
   Branch,3,CHILLED WATER LOOP DEMAND BRANCH 2,CHILLED WATER LOOP,Plant Demand,VAV_BOT WITH REHEAT CLG COIL INLET WATER NODE,VAV_BOT WITH REHEAT CLG COIL OUTLET WATER NODE
   Branch,4,CHILLED WATER LOOP DEMAND BRANCH 3,CHILLED WATER LOOP,Plant Demand,VAV_MID WITH REHEAT CLG COIL INLET WATER NODE,VAV_MID WITH REHEAT CLG COIL OUTLET WATER NODE
   Branch,5,CHILLED WATER LOOP DEMAND BRANCH 4,CHILLED WATER LOOP,Plant Demand,VAV_TOP WITH REHEAT CLG COIL INLET WATER NODE,VAV_TOP WITH REHEAT CLG COIL OUTLET WATER NODE
   Branch,6,CHILLED WATER LOOP DEMAND BRANCH 5,CHILLED WATER LOOP,Plant Demand,CAV_BAS CLG COIL INLET WATER NODE,CAV_BAS CLG COIL OUTLET WATER NODE
   Branch,7,CHILLED WATER LOOP DEMAND BYPASS BRANCH,CHILLED WATER LOOP,Plant Demand,CHILLED WATER LOOP DEMAND BYPASS PIPE INLET NODE,CHILLED WATER LOOP DEMAND BYPASS PIPE OUTLET NODE
   Branch,8,CHILLED WATER LOOP DEMAND OUTLET BRANCH,CHILLED WATER LOOP,Plant Demand,CHILLED WATER LOOP DEMAND OUTLET INLET WATER NODE,CHILLED WATER LOOP DEMAND OUTLET NODE
 Branch List,11,CONDENSER WATER LOOP SUPPLY BRANCHES,CONDENSER WATER LOOP,Plant Supply,4
   Branch,1,CONDENSER WATER LOOP SUPPLY INLET BRANCH,CONDENSER WATER LOOP,Plant Supply,CONDENSER WATER LOOP SUPPLY INLET NODE,CONDENSER WATER LOOP CONSTANT PUMP OUTLET WATER NODE
   Branch,2,CONDENSER WATER LOOP SUPPLY BRANCH 1,CONDENSER WATER LOOP,Plant Supply,CENTRIFUGAL FAN CYCLING OPEN COOLING TOWER 38.2 GPM/HP INLET WATER NODE,CENTRIFUGAL FAN CYCLING OPEN COOLING TOWER 38.2 GPM/HP OUTLET WATER NODE
   Branch,3,CONDENSER WATER LOOP SUPPLY BRANCH 2,CONDENSER WATER LOOP,Plant Supply,CONDENSER WATER LOOP COOLING TOWER BYPASS INLET WATER NODE,CONDENSER WATER LOOP COOLING TOWER BYPASS OUTLET WATER NODE
   Branch,4,CONDENSER WATER LOOP SUPPLY OUTLET BRANCH,CONDENSER WATER LOOP,Plant Supply,CONDENSER WATER LOOP SUPPLY OUTLET INLET WATER NODE,CONDENSER WATER LOOP SUPPLY OUTLET NODE
 Branch List,12,CONDENSER WATER LOOP DEMAND BRANCHES,CONDENSER WATER LOOP,Plant Demand,5
   Branch,1,CONDENSER WATER LOOP DEMAND INLET BRANCH,CONDENSER WATER LOOP,Plant Demand,CONDENSER WATER LOOP DEMAND INLET NODE,CONDENSER WATER LOOP DEMAND INLET OUTLET WATER NODE
   Branch,2,CONDENSER WATER LOOP DEMAND BRANCH 1,CONDENSER WATER LOOP,Plant Demand,CONDENSER WATER LOOP CHILLER BYPASS INLET WATER NODE,CONDENSER WATER LOOP CHILLER BYPASS OUTLET WATER NODE
   Branch,3,CONDENSER WATER LOOP DEMAND BRANCH 2,CONDENSER WATER LOOP,Plant Demand,90.1-2010 WATERCOOLED  CENTRIFUGAL CHILLER 0 618TONS 0.6KW/TON DEMAND INLET WATER NODE,90.1-2010 WATERCOOLED  CENTRIFUGAL CHILLER 0 618TONS 0.6KW/TON DEMAND OUTLET WATER NODE
   Branch,4,CONDENSER WATER LOOP DEMAND BYPASS BRANCH,CONDENSER WATER LOOP,Plant Demand,CONDENSER WATER LOOP DEMAND BYPASS PIPE INLET NODE,CONDENSER WATER LOOP DEMAND BYPASS PIPE OUTLET NODE
   Branch,5,CONDENSER WATER LOOP DEMAND OUTLET BRANCH,CONDENSER WATER LOOP,Plant Demand,CONDENSER WATER LOOP DEMAND OUTLET INLET WATER NODE,CONDENSER WATER LOOP DEMAND OUTLET NODE
 Branch List,13,HEAT PUMP LOOP SUPPLY BRANCHES,HEAT PUMP LOOP,Plant Supply,5
   Branch,1,HEAT PUMP LOOP SUPPLY INLET BRANCH,HEAT PUMP LOOP,Plant Supply,HEAT PUMP LOOP SUPPLY INLET NODE,HEAT PUMP LOOP PUMP OUTLET WATER NODE
   Branch,2,HEAT PUMP LOOP SUPPLY BRANCH 1,HEAT PUMP LOOP,Plant Supply,HEAT PUMP LOOP SUPPLEMENTAL BOILER 1530KBTU/HR 0.8 THERMAL EFF INLET WATER NODE,HEAT PUMP LOOP SUPPLEMENTAL BOILER 1530KBTU/HR 0.8 THERMAL EFF OUTLET WATER NODE
   Branch,3,HEAT PUMP LOOP SUPPLY BRANCH 2,HEAT PUMP LOOP,Plant Supply,HEAT PUMP LOOP SUPPLY BYPASS INLET WATER NODE,HEAT PUMP LOOP SUPPLY BYPASS OUTLET WATER NODE
   Branch,4,HEAT PUMP LOOP SUPPLY BRANCH 3,HEAT PUMP LOOP,Plant Supply,HEAT PUMP LOOP CENTRAL TOWER 20.0 GPM/HP INLET WATER NODE,HEAT PUMP LOOP CENTRAL TOWER 20.0 GPM/HP OUTLET WATER NODE
   Branch,5,HEAT PUMP LOOP SUPPLY OUTLET BRANCH,HEAT PUMP LOOP,Plant Supply,HEAT PUMP LOOP SUPPLY OUTLET INLET WATER NODE,HEAT PUMP LOOP SUPPLY OUTLET NODE
 Branch List,14,HEAT PUMP LOOP DEMAND BRANCHES,HEAT PUMP LOOP,Plant Demand,12
   Branch,1,HEAT PUMP LOOP DEMAND INLET BRANCH,HEAT PUMP LOOP,Plant Demand,HEAT PUMP LOOP DEMAND INLET NODE,HEAT PUMP LOOP DEMAND INLET OUTLET WATER NODE
   Branch,2,HEAT PUMP LOOP DEMAND BRANCH 1,HEAT PUMP LOOP,Plant Demand,HEAT PUMP LOOP DEMAND BYPASS INLET WATER NODE,HEAT PUMP LOOP DEMAND BYPASS OUTLET WATER NODE
   Branch,3,HEAT PUMP LOOP DEMAND BRANCH 2,HEAT PUMP LOOP,Plant Demand,DATACENTER_BASEMENT_ZN_6 ZN PSZ-AC DATA CENTER WATER-TO-AIR HP HTG COIL INLET WATER NODE,DATACENTER_BASEMENT_ZN_6 ZN PSZ-AC DATA CENTER WATER-TO-AIR HP HTG COIL OUTLET WATER NODE
   Branch,4,HEAT PUMP LOOP DEMAND BRANCH 3,HEAT PUMP LOOP,Plant Demand,DATACENTER_BASEMENT_ZN_6 ZN PSZ-AC DATA CENTER WATER-TO-AIR HP CLG COIL INLET WATER NODE,DATACENTER_BASEMENT_ZN_6 ZN PSZ-AC DATA CENTER WATER-TO-AIR HP CLG COIL OUTLET WATER NODE
   Branch,5,HEAT PUMP LOOP DEMAND BRANCH 4,HEAT PUMP LOOP,Plant Demand,DATACENTER_BOT_ZN_6 ZN PSZ-AC DATA CENTER WATER-TO-AIR HP HTG COIL INLET WATER NODE,DATACENTER_BOT_ZN_6 ZN PSZ-AC DATA CENTER WATER-TO-AIR HP HTG COIL OUTLET WATER NODE
   Branch,6,HEAT PUMP LOOP DEMAND BRANCH 5,HEAT PUMP LOOP,Plant Demand,DATACENTER_BOT_ZN_6 ZN PSZ-AC DATA CENTER WATER-TO-AIR HP CLG COIL INLET WATER NODE,DATACENTER_BOT_ZN_6 ZN PSZ-AC DATA CENTER WATER-TO-AIR HP CLG COIL OUTLET WATER NODE
   Branch,7,HEAT PUMP LOOP DEMAND BRANCH 6,HEAT PUMP LOOP,Plant Demand,DATACENTER_MID_ZN_6 ZN PSZ-AC DATA CENTER WATER-TO-AIR HP HTG COIL INLET WATER NODE,DATACENTER_MID_ZN_6 ZN PSZ-AC DATA CENTER WATER-TO-AIR HP HTG COIL OUTLET WATER NODE
   Branch,8,HEAT PUMP LOOP DEMAND BRANCH 7,HEAT PUMP LOOP,Plant Demand,DATACENTER_MID_ZN_6 ZN PSZ-AC DATA CENTER WATER-TO-AIR HP CLG COIL INLET WATER NODE,DATACENTER_MID_ZN_6 ZN PSZ-AC DATA CENTER WATER-TO-AIR HP CLG COIL OUTLET WATER NODE
   Branch,9,HEAT PUMP LOOP DEMAND BRANCH 8,HEAT PUMP LOOP,Plant Demand,DATACENTER_TOP_ZN_6 ZN PSZ-AC DATA CENTER WATER-TO-AIR HP HTG COIL INLET WATER NODE,DATACENTER_TOP_ZN_6 ZN PSZ-AC DATA CENTER WATER-TO-AIR HP HTG COIL OUTLET WATER NODE
   Branch,10,HEAT PUMP LOOP DEMAND BRANCH 9,HEAT PUMP LOOP,Plant Demand,DATACENTER_TOP_ZN_6 ZN PSZ-AC DATA CENTER WATER-TO-AIR HP CLG COIL INLET WATER NODE,DATACENTER_TOP_ZN_6 ZN PSZ-AC DATA CENTER WATER-TO-AIR HP CLG COIL OUTLET WATER NODE
   Branch,11,HEAT PUMP LOOP DEMAND BYPASS BRANCH,HEAT PUMP LOOP,Plant Demand,HEAT PUMP LOOP DEMAND BYPASS PIPE INLET NODE,HEAT PUMP LOOP DEMAND BYPASS PIPE OUTLET NODE
   Branch,12,HEAT PUMP LOOP DEMAND OUTLET BRANCH,HEAT PUMP LOOP,Plant Demand,HEAT PUMP LOOP DEMAND OUTLET INLET WATER NODE,HEAT PUMP LOOP DEMAND OUTLET NODE
 Branch List,15,HOT WATER LOOP SUPPLY BRANCHES,HOT WATER LOOP,Plant Supply,4
   Branch,1,HOT WATER LOOP SUPPLY INLET BRANCH,HOT WATER LOOP,Plant Supply,HOT WATER LOOP SUPPLY INLET NODE,HOT WATER LOOP PUMP OUTLET WATER NODE
   Branch,2,HOT WATER LOOP SUPPLY BRANCH 1,HOT WATER LOOP,Plant Supply,BOILER 6158KBTU/HR 0.8 THERMAL EFF INLET WATER NODE,BOILER 6158KBTU/HR 0.8 THERMAL EFF OUTLET WATER NODE
   Branch,3,HOT WATER LOOP SUPPLY BRANCH 2,HOT WATER LOOP,Plant Supply,HOT WATER LOOP SUPPLY EQUIPMENT BYPASS INLET WATER NODE,HOT WATER LOOP SUPPLY EQUIPMENT BYPASS OUTLET WATER NODE
   Branch,4,HOT WATER LOOP SUPPLY OUTLET BRANCH,HOT WATER LOOP,Plant Supply,HOT WATER LOOP SUPPLY OUTLET INLET WATER NODE,HOT WATER LOOP SUPPLY OUTLET NODE
 Branch List,16,HOT WATER LOOP DEMAND BRANCHES,HOT WATER LOOP,Plant Demand,24
   Branch,1,HOT WATER LOOP DEMAND INLET BRANCH,HOT WATER LOOP,Plant Demand,HOT WATER LOOP DEMAND INLET NODE,HOT WATER LOOP DEMAND INLET OUTLET WATER NODE
   Branch,2,HOT WATER LOOP DEMAND BRANCH 1,HOT WATER LOOP,Plant Demand,HOT WATER LOOP COIL BYPASS INLET WATER NODE,HOT WATER LOOP COIL BYPASS OUTLET WATER NODE
   Branch,3,HOT WATER LOOP DEMAND BRANCH 2,HOT WATER LOOP,Plant Demand,VAV_BOT WITH REHEAT MAIN HTG COIL INLET WATER NODE,VAV_BOT WITH REHEAT MAIN HTG COIL OUTLET WATER NODE
   Branch,4,HOT WATER LOOP DEMAND BRANCH 3,HOT WATER LOOP,Plant Demand,PERIMETER_BOT_ZN_1 ZN REHEAT COIL INLET WATER NODE,PERIMETER_BOT_ZN_1 ZN REHEAT COIL OUTLET WATER NODE
   Branch,5,HOT WATER LOOP DEMAND BRANCH 4,HOT WATER LOOP,Plant Demand,PERIMETER_BOT_ZN_2 ZN REHEAT COIL INLET WATER NODE,PERIMETER_BOT_ZN_2 ZN REHEAT COIL OUTLET WATER NODE
   Branch,6,HOT WATER LOOP DEMAND BRANCH 5,HOT WATER LOOP,Plant Demand,PERIMETER_BOT_ZN_3 ZN REHEAT COIL INLET WATER NODE,PERIMETER_BOT_ZN_3 ZN REHEAT COIL OUTLET WATER NODE
   Branch,7,HOT WATER LOOP DEMAND BRANCH 6,HOT WATER LOOP,Plant Demand,PERIMETER_BOT_ZN_4 ZN REHEAT COIL INLET WATER NODE,PERIMETER_BOT_ZN_4 ZN REHEAT COIL OUTLET WATER NODE
   Branch,8,HOT WATER LOOP DEMAND BRANCH 7,HOT WATER LOOP,Plant Demand,CORE_BOTTOM ZN REHEAT COIL INLET WATER NODE,CORE_BOTTOM ZN REHEAT COIL OUTLET WATER NODE
   Branch,9,HOT WATER LOOP DEMAND BRANCH 8,HOT WATER LOOP,Plant Demand,VAV_MID WITH REHEAT MAIN HTG COIL INLET WATER NODE,VAV_MID WITH REHEAT MAIN HTG COIL OUTLET WATER NODE
   Branch,10,HOT WATER LOOP DEMAND BRANCH 9,HOT WATER LOOP,Plant Demand,PERIMETER_MID_ZN_1 ZN REHEAT COIL INLET WATER NODE,PERIMETER_MID_ZN_1 ZN REHEAT COIL OUTLET WATER NODE
   Branch,11,HOT WATER LOOP DEMAND BRANCH 10,HOT WATER LOOP,Plant Demand,PERIMETER_MID_ZN_2 ZN REHEAT COIL INLET WATER NODE,PERIMETER_MID_ZN_2 ZN REHEAT COIL OUTLET WATER NODE
   Branch,12,HOT WATER LOOP DEMAND BRANCH 11,HOT WATER LOOP,Plant Demand,PERIMETER_MID_ZN_3 ZN REHEAT COIL INLET WATER NODE,PERIMETER_MID_ZN_3 ZN REHEAT COIL OUTLET WATER NODE
   Branch,13,HOT WATER LOOP DEMAND BRANCH 12,HOT WATER LOOP,Plant Demand,PERIMETER_MID_ZN_4 ZN REHEAT COIL INLET WATER NODE,PERIMETER_MID_ZN_4 ZN REHEAT COIL OUTLET WATER NODE
   Branch,14,HOT WATER LOOP DEMAND BRANCH 13,HOT WATER LOOP,Plant Demand,CORE_MID ZN REHEAT COIL INLET WATER NODE,CORE_MID ZN REHEAT COIL OUTLET WATER NODE
   Branch,15,HOT WATER LOOP DEMAND BRANCH 14,HOT WATER LOOP,Plant Demand,VAV_TOP WITH REHEAT MAIN HTG COIL INLET WATER NODE,VAV_TOP WITH REHEAT MAIN HTG COIL OUTLET WATER NODE
   Branch,16,HOT WATER LOOP DEMAND BRANCH 15,HOT WATER LOOP,Plant Demand,PERIMETER_TOP_ZN_1 ZN REHEAT COIL INLET WATER NODE,PERIMETER_TOP_ZN_1 ZN REHEAT COIL OUTLET WATER NODE
   Branch,17,HOT WATER LOOP DEMAND BRANCH 16,HOT WATER LOOP,Plant Demand,PERIMETER_TOP_ZN_2 ZN REHEAT COIL INLET WATER NODE,PERIMETER_TOP_ZN_2 ZN REHEAT COIL OUTLET WATER NODE
   Branch,18,HOT WATER LOOP DEMAND BRANCH 17,HOT WATER LOOP,Plant Demand,PERIMETER_TOP_ZN_3 ZN REHEAT COIL INLET WATER NODE,PERIMETER_TOP_ZN_3 ZN REHEAT COIL OUTLET WATER NODE
   Branch,19,HOT WATER LOOP DEMAND BRANCH 18,HOT WATER LOOP,Plant Demand,PERIMETER_TOP_ZN_4 ZN REHEAT COIL INLET WATER NODE,PERIMETER_TOP_ZN_4 ZN REHEAT COIL OUTLET WATER NODE
   Branch,20,HOT WATER LOOP DEMAND BRANCH 19,HOT WATER LOOP,Plant Demand,CORE_TOP ZN REHEAT COIL INLET WATER NODE,CORE_TOP ZN REHEAT COIL OUTLET WATER NODE
   Branch,21,HOT WATER LOOP DEMAND BRANCH 20,HOT WATER LOOP,Plant Demand,CAV_BAS MAIN HTG COIL INLET WATER NODE,CAV_BAS MAIN HTG COIL OUTLET WATER NODE
   Branch,22,HOT WATER LOOP DEMAND BRANCH 21,HOT WATER LOOP,Plant Demand,BASEMENT ZN REHEAT COIL INLET WATER NODE,BASEMENT ZN REHEAT COIL OUTLET WATER NODE
   Branch,23,HOT WATER LOOP DEMAND BYPASS BRANCH,HOT WATER LOOP,Plant Demand,HOT WATER LOOP DEMAND BYPASS PIPE INLET NODE,HOT WATER LOOP DEMAND BYPASS PIPE OUTLET NODE
   Branch,24,HOT WATER LOOP DEMAND OUTLET BRANCH,HOT WATER LOOP,Plant Demand,HOT WATER LOOP DEMAND OUTLET INLET WATER NODE,HOT WATER LOOP DEMAND OUTLET NODE
 Branch List,17,MAIN SERVICE WATER LOOP SUPPLY BRANCHES,MAIN SERVICE WATER LOOP,Plant Supply,4
   Branch,1,MAIN SERVICE WATER LOOP SUPPLY INLET BRANCH,MAIN SERVICE WATER LOOP,Plant Supply,MAIN SERVICE WATER LOOP SUPPLY INLET NODE,MAIN SERVICE WATER LOOP CIRCULATOR PUMP OUTLET WATER NODE
   Branch,2,MAIN SERVICE WATER LOOP SUPPLY BRANCH 1,MAIN SERVICE WATER LOOP,Plant Supply,300GAL NATURAL GAS WATER HEATER - 300KBTU/HR 0.804 THERM EFF SUPPLY INLET WATER NODE,300GAL NATURAL GAS WATER HEATER - 300KBTU/HR 0.804 THERM EFF SUPPLY OUTLET WATER NODE
   Branch,3,MAIN SERVICE WATER LOOP SUPPLY BRANCH 2,MAIN SERVICE WATER LOOP,Plant Supply,PIPE ADIABATIC 1 INLET WATER NODE,PIPE ADIABATIC 1 OUTLET WATER NODE
   Branch,4,MAIN SERVICE WATER LOOP SUPPLY OUTLET BRANCH,MAIN SERVICE WATER LOOP,Plant Supply,PIPE ADIABATIC 3 INLET WATER NODE,MAIN SERVICE WATER LOOP SUPPLY OUTLET NODE
 Branch List,18,MAIN SERVICE WATER LOOP DEMAND BRANCHES,MAIN SERVICE WATER LOOP,Plant Demand,7
   Branch,1,MAIN SERVICE WATER LOOP DEMAND INLET BRANCH,MAIN SERVICE WATER LOOP,Plant Demand,MAIN SERVICE WATER LOOP DEMAND INLET NODE,MAIN SERVICE WATER LOOP DEMAND INLET PIPE NODE
   Branch,2,MAIN SERVICE WATER LOOP DEMAND BRANCH 1,MAIN SERVICE WATER LOOP,Plant Demand,PIPE ADIABATIC 2 INLET WATER NODE,PIPE ADIABATIC 2 OUTLET WATER NODE
   Branch,3,MAIN SERVICE WATER LOOP DEMAND BRANCH 2,MAIN SERVICE WATER LOOP,Plant Demand,CORE_BOTTOM WUC 0.58GPM AT 140F INLET WATER NODE,CORE_BOTTOM WUC 0.58GPM AT 140F OUTLET WATER NODE
   Branch,4,MAIN SERVICE WATER LOOP DEMAND BRANCH 3,MAIN SERVICE WATER LOOP,Plant Demand,CORE_MID WUC 0.58GPM AT 140F INLET WATER NODE,CORE_MID WUC 0.58GPM AT 140F OUTLET WATER NODE
   Branch,5,MAIN SERVICE WATER LOOP DEMAND BRANCH 4,MAIN SERVICE WATER LOOP,Plant Demand,CORE_TOP WUC 0.58GPM AT 140F INLET WATER NODE,CORE_TOP WUC 0.58GPM AT 140F OUTLET WATER NODE
   Branch,6,MAIN SERVICE WATER LOOP DEMAND BYPASS BRANCH,MAIN SERVICE WATER LOOP,Plant Demand,MAIN SERVICE WATER LOOP DEMAND BYPASS PIPE INLET NODE,MAIN SERVICE WATER LOOP DEMAND BYPASS PIPE OUTLET NODE
   Branch,7,MAIN SERVICE WATER LOOP DEMAND OUTLET BRANCH,MAIN SERVICE WATER LOOP,Plant Demand,PIPE ADIABATIC 4 INLET WATER NODE,MAIN SERVICE WATER LOOP DEMAND OUTLET NODE
! ===============================================================
! <#Supply Air Paths>,<Number of Supply Air Paths>
 #Supply Air Paths,8
! <Supply Air Path>,<Supply Air Path Count>,<Supply Air Path Name>,<AirLoopHVAC Name>
! <#Components on Supply Air Path>,<Number of Components>
! <Supply Air Path Component>,<Component Count>,<Component Type>,<Component Name>,<AirLoopHVAC Name>
! <#Outlet Nodes on Supply Air Path Component>,<Number of Nodes>
! <Supply Air Path Component Nodes>,<Node Count>,<Component Type>,<Component Name>,<Inlet Node Name>,<Outlet Node Name>,<AirLoopHVAC Name>
 Supply Air Path,1,CAV_BAS CAV_BAS DEMAND INLET NODE SUPPLY PATH,CAV_BAS
   #Components on Supply Air Path,1
   Supply Air Path Component,1,AIRLOOPHVAC:ZONESPLITTER,AIR LOOP HVAC ZONE SPLITTER 4,CAV_BAS
     #Outlet Nodes on Supply Air Path Component,1
     Supply Air Path Component Nodes,1,AIRLOOPHVAC:ZONESPLITTER,AIR LOOP HVAC ZONE SPLITTER 4,CAV_BAS DEMAND INLET NODE,BASEMENT ZN VAV TERMINAL INLET AIR NODE,CAV_BAS
! <#Nodes on Supply Air Path>,<Number of Nodes>
! <Supply Air Path Node>,<Node Type>,<Node Count>,<Node Name>,<AirLoopHVAC Name>
#Nodes on Supply Air Path,2
   Supply Air Path Node,Inlet Node,1,CAV_BAS DEMAND INLET NODE,CAV_BAS
   Supply Air Path Node,Outlet Node,2,BASEMENT ZN VAV TERMINAL INLET AIR NODE,CAV_BAS
 Supply Air Path,2,DATACENTER_BASEMENT_ZN_6 ZN PSZ-AC DATA CENTER DATACENTER_BASEMENT_ZN_6 ZN PSZ-AC DATA CENTER DEMAND INLET NODE SUPPLY PATH,DATACENTER_BASEMENT_ZN_6 ZN PSZ-AC DATA CENTER
   #Components on Supply Air Path,1
   Supply Air Path Component,1,AIRLOOPHVAC:ZONESPLITTER,AIR LOOP HVAC ZONE SPLITTER 5,DATACENTER_BASEMENT_ZN_6 ZN PSZ-AC DATA CENTER
     #Outlet Nodes on Supply Air Path Component,1
     Supply Air Path Component Nodes,1,AIRLOOPHVAC:ZONESPLITTER,AIR LOOP HVAC ZONE SPLITTER 5,DATACENTER_BASEMENT_ZN_6 ZN PSZ-AC DATA CENTER DEMAND INLET NODE,DATACENTER_BASEMENT_ZN_6 ZN PSZ-AC DATA CENTER DIFFUSER INLET AIR NODE,DATACENTER_BASEMENT_ZN_6 ZN PSZ-AC DATA CENTER
! <#Nodes on Supply Air Path>,<Number of Nodes>
! <Supply Air Path Node>,<Node Type>,<Node Count>,<Node Name>,<AirLoopHVAC Name>
#Nodes on Supply Air Path,2
   Supply Air Path Node,Inlet Node,1,DATACENTER_BASEMENT_ZN_6 ZN PSZ-AC DATA CENTER DEMAND INLET NODE,DATACENTER_BASEMENT_ZN_6 ZN PSZ-AC DATA CENTER
   Supply Air Path Node,Outlet Node,2,DATACENTER_BASEMENT_ZN_6 ZN PSZ-AC DATA CENTER DIFFUSER INLET AIR NODE,DATACENTER_BASEMENT_ZN_6 ZN PSZ-AC DATA CENTER
 Supply Air Path,3,DATACENTER_BOT_ZN_6 ZN PSZ-AC DATA CENTER DATACENTER_BOT_ZN_6 ZN PSZ-AC DATA CENTER DEMAND INLET NODE SUPPLY PATH,DATACENTER_BOT_ZN_6 ZN PSZ-AC DATA CENTER
   #Components on Supply Air Path,1
   Supply Air Path Component,1,AIRLOOPHVAC:ZONESPLITTER,AIR LOOP HVAC ZONE SPLITTER 6,DATACENTER_BOT_ZN_6 ZN PSZ-AC DATA CENTER
     #Outlet Nodes on Supply Air Path Component,1
     Supply Air Path Component Nodes,1,AIRLOOPHVAC:ZONESPLITTER,AIR LOOP HVAC ZONE SPLITTER 6,DATACENTER_BOT_ZN_6 ZN PSZ-AC DATA CENTER DEMAND INLET NODE,DATACENTER_BOT_ZN_6 ZN PSZ-AC DATA CENTER DIFFUSER INLET AIR NODE,DATACENTER_BOT_ZN_6 ZN PSZ-AC DATA CENTER
! <#Nodes on Supply Air Path>,<Number of Nodes>
! <Supply Air Path Node>,<Node Type>,<Node Count>,<Node Name>,<AirLoopHVAC Name>
#Nodes on Supply Air Path,2
   Supply Air Path Node,Inlet Node,1,DATACENTER_BOT_ZN_6 ZN PSZ-AC DATA CENTER DEMAND INLET NODE,DATACENTER_BOT_ZN_6 ZN PSZ-AC DATA CENTER
   Supply Air Path Node,Outlet Node,2,DATACENTER_BOT_ZN_6 ZN PSZ-AC DATA CENTER DIFFUSER INLET AIR NODE,DATACENTER_BOT_ZN_6 ZN PSZ-AC DATA CENTER
 Supply Air Path,4,DATACENTER_MID_ZN_6 ZN PSZ-AC DATA CENTER DATACENTER_MID_ZN_6 ZN PSZ-AC DATA CENTER DEMAND INLET NODE SUPPLY PATH,DATACENTER_MID_ZN_6 ZN PSZ-AC DATA CENTER
   #Components on Supply Air Path,1
   Supply Air Path Component,1,AIRLOOPHVAC:ZONESPLITTER,AIR LOOP HVAC ZONE SPLITTER 7,DATACENTER_MID_ZN_6 ZN PSZ-AC DATA CENTER
     #Outlet Nodes on Supply Air Path Component,1
     Supply Air Path Component Nodes,1,AIRLOOPHVAC:ZONESPLITTER,AIR LOOP HVAC ZONE SPLITTER 7,DATACENTER_MID_ZN_6 ZN PSZ-AC DATA CENTER DEMAND INLET NODE,DATACENTER_MID_ZN_6 ZN PSZ-AC DATA CENTER DIFFUSER INLET AIR NODE,DATACENTER_MID_ZN_6 ZN PSZ-AC DATA CENTER
! <#Nodes on Supply Air Path>,<Number of Nodes>
! <Supply Air Path Node>,<Node Type>,<Node Count>,<Node Name>,<AirLoopHVAC Name>
#Nodes on Supply Air Path,2
   Supply Air Path Node,Inlet Node,1,DATACENTER_MID_ZN_6 ZN PSZ-AC DATA CENTER DEMAND INLET NODE,DATACENTER_MID_ZN_6 ZN PSZ-AC DATA CENTER
   Supply Air Path Node,Outlet Node,2,DATACENTER_MID_ZN_6 ZN PSZ-AC DATA CENTER DIFFUSER INLET AIR NODE,DATACENTER_MID_ZN_6 ZN PSZ-AC DATA CENTER
 Supply Air Path,5,DATACENTER_TOP_ZN_6 ZN PSZ-AC DATA CENTER DATACENTER_TOP_ZN_6 ZN PSZ-AC DATA CENTER DEMAND INLET NODE SUPPLY PATH,DATACENTER_TOP_ZN_6 ZN PSZ-AC DATA CENTER
   #Components on Supply Air Path,1
   Supply Air Path Component,1,AIRLOOPHVAC:ZONESPLITTER,AIR LOOP HVAC ZONE SPLITTER 8,DATACENTER_TOP_ZN_6 ZN PSZ-AC DATA CENTER
     #Outlet Nodes on Supply Air Path Component,1
     Supply Air Path Component Nodes,1,AIRLOOPHVAC:ZONESPLITTER,AIR LOOP HVAC ZONE SPLITTER 8,DATACENTER_TOP_ZN_6 ZN PSZ-AC DATA CENTER DEMAND INLET NODE,DATACENTER_TOP_ZN_6 ZN PSZ-AC DATA CENTER DIFFUSER INLET AIR NODE,DATACENTER_TOP_ZN_6 ZN PSZ-AC DATA CENTER
! <#Nodes on Supply Air Path>,<Number of Nodes>
! <Supply Air Path Node>,<Node Type>,<Node Count>,<Node Name>,<AirLoopHVAC Name>
#Nodes on Supply Air Path,2
   Supply Air Path Node,Inlet Node,1,DATACENTER_TOP_ZN_6 ZN PSZ-AC DATA CENTER DEMAND INLET NODE,DATACENTER_TOP_ZN_6 ZN PSZ-AC DATA CENTER
   Supply Air Path Node,Outlet Node,2,DATACENTER_TOP_ZN_6 ZN PSZ-AC DATA CENTER DIFFUSER INLET AIR NODE,DATACENTER_TOP_ZN_6 ZN PSZ-AC DATA CENTER
 Supply Air Path,6,VAV_BOT WITH REHEAT VAV_BOT WITH REHEAT DEMAND INLET NODE SUPPLY PATH,VAV_BOT WITH REHEAT
   #Components on Supply Air Path,1
   Supply Air Path Component,1,AIRLOOPHVAC:ZONESPLITTER,AIR LOOP HVAC ZONE SPLITTER 1,VAV_BOT WITH REHEAT
     #Outlet Nodes on Supply Air Path Component,5
     Supply Air Path Component Nodes,1,AIRLOOPHVAC:ZONESPLITTER,AIR LOOP HVAC ZONE SPLITTER 1,VAV_BOT WITH REHEAT DEMAND INLET NODE,PERIMETER_BOT_ZN_1 ZN VAV TERMINAL INLET AIR NODE,VAV_BOT WITH REHEAT
     Supply Air Path Component Nodes,2,AIRLOOPHVAC:ZONESPLITTER,AIR LOOP HVAC ZONE SPLITTER 1,VAV_BOT WITH REHEAT DEMAND INLET NODE,PERIMETER_BOT_ZN_2 ZN VAV TERMINAL INLET AIR NODE,VAV_BOT WITH REHEAT
     Supply Air Path Component Nodes,3,AIRLOOPHVAC:ZONESPLITTER,AIR LOOP HVAC ZONE SPLITTER 1,VAV_BOT WITH REHEAT DEMAND INLET NODE,PERIMETER_BOT_ZN_3 ZN VAV TERMINAL INLET AIR NODE,VAV_BOT WITH REHEAT
     Supply Air Path Component Nodes,4,AIRLOOPHVAC:ZONESPLITTER,AIR LOOP HVAC ZONE SPLITTER 1,VAV_BOT WITH REHEAT DEMAND INLET NODE,PERIMETER_BOT_ZN_4 ZN VAV TERMINAL INLET AIR NODE,VAV_BOT WITH REHEAT
     Supply Air Path Component Nodes,5,AIRLOOPHVAC:ZONESPLITTER,AIR LOOP HVAC ZONE SPLITTER 1,VAV_BOT WITH REHEAT DEMAND INLET NODE,CORE_BOTTOM ZN VAV TERMINAL INLET AIR NODE,VAV_BOT WITH REHEAT
! <#Nodes on Supply Air Path>,<Number of Nodes>
! <Supply Air Path Node>,<Node Type>,<Node Count>,<Node Name>,<AirLoopHVAC Name>
#Nodes on Supply Air Path,6
   Supply Air Path Node,Inlet Node,1,VAV_BOT WITH REHEAT DEMAND INLET NODE,VAV_BOT WITH REHEAT
   Supply Air Path Node,Outlet Node,2,PERIMETER_BOT_ZN_1 ZN VAV TERMINAL INLET AIR NODE,VAV_BOT WITH REHEAT
   Supply Air Path Node,Outlet Node,3,PERIMETER_BOT_ZN_2 ZN VAV TERMINAL INLET AIR NODE,VAV_BOT WITH REHEAT
   Supply Air Path Node,Outlet Node,4,PERIMETER_BOT_ZN_3 ZN VAV TERMINAL INLET AIR NODE,VAV_BOT WITH REHEAT
   Supply Air Path Node,Outlet Node,5,PERIMETER_BOT_ZN_4 ZN VAV TERMINAL INLET AIR NODE,VAV_BOT WITH REHEAT
   Supply Air Path Node,Outlet Node,6,CORE_BOTTOM ZN VAV TERMINAL INLET AIR NODE,VAV_BOT WITH REHEAT
 Supply Air Path,7,VAV_MID WITH REHEAT VAV_MID WITH REHEAT DEMAND INLET NODE SUPPLY PATH,VAV_MID WITH REHEAT
   #Components on Supply Air Path,1
   Supply Air Path Component,1,AIRLOOPHVAC:ZONESPLITTER,AIR LOOP HVAC ZONE SPLITTER 2,VAV_MID WITH REHEAT
     #Outlet Nodes on Supply Air Path Component,5
     Supply Air Path Component Nodes,1,AIRLOOPHVAC:ZONESPLITTER,AIR LOOP HVAC ZONE SPLITTER 2,VAV_MID WITH REHEAT DEMAND INLET NODE,PERIMETER_MID_ZN_1 ZN VAV TERMINAL INLET AIR NODE,VAV_MID WITH REHEAT
     Supply Air Path Component Nodes,2,AIRLOOPHVAC:ZONESPLITTER,AIR LOOP HVAC ZONE SPLITTER 2,VAV_MID WITH REHEAT DEMAND INLET NODE,PERIMETER_MID_ZN_2 ZN VAV TERMINAL INLET AIR NODE,VAV_MID WITH REHEAT
     Supply Air Path Component Nodes,3,AIRLOOPHVAC:ZONESPLITTER,AIR LOOP HVAC ZONE SPLITTER 2,VAV_MID WITH REHEAT DEMAND INLET NODE,PERIMETER_MID_ZN_3 ZN VAV TERMINAL INLET AIR NODE,VAV_MID WITH REHEAT
     Supply Air Path Component Nodes,4,AIRLOOPHVAC:ZONESPLITTER,AIR LOOP HVAC ZONE SPLITTER 2,VAV_MID WITH REHEAT DEMAND INLET NODE,PERIMETER_MID_ZN_4 ZN VAV TERMINAL INLET AIR NODE,VAV_MID WITH REHEAT
     Supply Air Path Component Nodes,5,AIRLOOPHVAC:ZONESPLITTER,AIR LOOP HVAC ZONE SPLITTER 2,VAV_MID WITH REHEAT DEMAND INLET NODE,CORE_MID ZN VAV TERMINAL INLET AIR NODE,VAV_MID WITH REHEAT
! <#Nodes on Supply Air Path>,<Number of Nodes>
! <Supply Air Path Node>,<Node Type>,<Node Count>,<Node Name>,<AirLoopHVAC Name>
#Nodes on Supply Air Path,6
   Supply Air Path Node,Inlet Node,1,VAV_MID WITH REHEAT DEMAND INLET NODE,VAV_MID WITH REHEAT
   Supply Air Path Node,Outlet Node,2,PERIMETER_MID_ZN_1 ZN VAV TERMINAL INLET AIR NODE,VAV_MID WITH REHEAT
   Supply Air Path Node,Outlet Node,3,PERIMETER_MID_ZN_2 ZN VAV TERMINAL INLET AIR NODE,VAV_MID WITH REHEAT
   Supply Air Path Node,Outlet Node,4,PERIMETER_MID_ZN_3 ZN VAV TERMINAL INLET AIR NODE,VAV_MID WITH REHEAT
   Supply Air Path Node,Outlet Node,5,PERIMETER_MID_ZN_4 ZN VAV TERMINAL INLET AIR NODE,VAV_MID WITH REHEAT
   Supply Air Path Node,Outlet Node,6,CORE_MID ZN VAV TERMINAL INLET AIR NODE,VAV_MID WITH REHEAT
 Supply Air Path,8,VAV_TOP WITH REHEAT VAV_TOP WITH REHEAT DEMAND INLET NODE SUPPLY PATH,VAV_TOP WITH REHEAT
   #Components on Supply Air Path,1
   Supply Air Path Component,1,AIRLOOPHVAC:ZONESPLITTER,AIR LOOP HVAC ZONE SPLITTER 3,VAV_TOP WITH REHEAT
     #Outlet Nodes on Supply Air Path Component,5
     Supply Air Path Component Nodes,1,AIRLOOPHVAC:ZONESPLITTER,AIR LOOP HVAC ZONE SPLITTER 3,VAV_TOP WITH REHEAT DEMAND INLET NODE,PERIMETER_TOP_ZN_1 ZN VAV TERMINAL INLET AIR NODE,VAV_TOP WITH REHEAT
     Supply Air Path Component Nodes,2,AIRLOOPHVAC:ZONESPLITTER,AIR LOOP HVAC ZONE SPLITTER 3,VAV_TOP WITH REHEAT DEMAND INLET NODE,PERIMETER_TOP_ZN_2 ZN VAV TERMINAL INLET AIR NODE,VAV_TOP WITH REHEAT
     Supply Air Path Component Nodes,3,AIRLOOPHVAC:ZONESPLITTER,AIR LOOP HVAC ZONE SPLITTER 3,VAV_TOP WITH REHEAT DEMAND INLET NODE,PERIMETER_TOP_ZN_3 ZN VAV TERMINAL INLET AIR NODE,VAV_TOP WITH REHEAT
     Supply Air Path Component Nodes,4,AIRLOOPHVAC:ZONESPLITTER,AIR LOOP HVAC ZONE SPLITTER 3,VAV_TOP WITH REHEAT DEMAND INLET NODE,PERIMETER_TOP_ZN_4 ZN VAV TERMINAL INLET AIR NODE,VAV_TOP WITH REHEAT
     Supply Air Path Component Nodes,5,AIRLOOPHVAC:ZONESPLITTER,AIR LOOP HVAC ZONE SPLITTER 3,VAV_TOP WITH REHEAT DEMAND INLET NODE,CORE_TOP ZN VAV TERMINAL INLET AIR NODE,VAV_TOP WITH REHEAT
! <#Nodes on Supply Air Path>,<Number of Nodes>
! <Supply Air Path Node>,<Node Type>,<Node Count>,<Node Name>,<AirLoopHVAC Name>
#Nodes on Supply Air Path,6
   Supply Air Path Node,Inlet Node,1,VAV_TOP WITH REHEAT DEMAND INLET NODE,VAV_TOP WITH REHEAT
   Supply Air Path Node,Outlet Node,2,PERIMETER_TOP_ZN_1 ZN VAV TERMINAL INLET AIR NODE,VAV_TOP WITH REHEAT
   Supply Air Path Node,Outlet Node,3,PERIMETER_TOP_ZN_2 ZN VAV TERMINAL INLET AIR NODE,VAV_TOP WITH REHEAT
   Supply Air Path Node,Outlet Node,4,PERIMETER_TOP_ZN_3 ZN VAV TERMINAL INLET AIR NODE,VAV_TOP WITH REHEAT
   Supply Air Path Node,Outlet Node,5,PERIMETER_TOP_ZN_4 ZN VAV TERMINAL INLET AIR NODE,VAV_TOP WITH REHEAT
   Supply Air Path Node,Outlet Node,6,CORE_TOP ZN VAV TERMINAL INLET AIR NODE,VAV_TOP WITH REHEAT
! ===============================================================
! <#Return Air Paths>,<Number of Return Air Paths>
 #Return Air Paths,8
! <Return Air Path>,<Return Air Path Count>,<Return Air Path Name>,<AirLoopHVAC Name>
! <#Components on Return Air Path>,<Number of Components>
! <Return Air Path Component>,<Component Count>,<Component Type>,<Component Name>,<AirLoopHVAC Name>
! <#Inlet Nodes on Return Air Path Component>,<Number of Nodes>
! <Return Air Path Component Nodes>,<Node Count>,<Component Type>,<Component Name>,<Inlet Node Name>,<Outlet Node Name>,<AirLoopHVAC Name>
 Return Air Path,1,CAV_BAS RETURN PATH,CAV_BAS
   #Components on Return Air Path,1
   Return Air Path Component,1,AIRLOOPHVAC:ZONEMIXER,AIR LOOP HVAC ZONE MIXER 4,CAV_BAS
     #Inlet Nodes on Return Air Path Component,1
     Return Air Path Component Nodes,1,AIRLOOPHVAC:ZONEMIXER,AIR LOOP HVAC ZONE MIXER 4,BASEMENT ZN RETURN AIR NODE,CAV_BAS DEMAND OUTLET NODE,CAV_BAS
! <#Nodes on Return Air Path>,<Number of Nodes>
! <Return Air Path Node>,<Node Type>,<Node Count>,<Node Name>,<AirLoopHVAC Name>
   #Nodes on Return Air Path,2
   Return Air Path Node,Outlet Node,1,CAV_BAS DEMAND OUTLET NODE,CAV_BAS
   Return Air Path Node,Inlet Node,2,BASEMENT ZN RETURN AIR NODE,CAV_BAS
 Return Air Path,2,DATACENTER_BASEMENT_ZN_6 ZN PSZ-AC DATA CENTER RETURN PATH,DATACENTER_BASEMENT_ZN_6 ZN PSZ-AC DATA CENTER
   #Components on Return Air Path,1
   Return Air Path Component,1,AIRLOOPHVAC:ZONEMIXER,AIR LOOP HVAC ZONE MIXER 5,DATACENTER_BASEMENT_ZN_6 ZN PSZ-AC DATA CENTER
     #Inlet Nodes on Return Air Path Component,1
     Return Air Path Component Nodes,1,AIRLOOPHVAC:ZONEMIXER,AIR LOOP HVAC ZONE MIXER 5,DATACENTER_BASEMENT_ZN_6 ZN RETURN AIR NODE,DATACENTER_BASEMENT_ZN_6 ZN PSZ-AC DATA CENTER DEMAND OUTLET NODE,DATACENTER_BASEMENT_ZN_6 ZN PSZ-AC DATA CENTER
! <#Nodes on Return Air Path>,<Number of Nodes>
! <Return Air Path Node>,<Node Type>,<Node Count>,<Node Name>,<AirLoopHVAC Name>
   #Nodes on Return Air Path,2
   Return Air Path Node,Outlet Node,1,DATACENTER_BASEMENT_ZN_6 ZN PSZ-AC DATA CENTER DEMAND OUTLET NODE,DATACENTER_BASEMENT_ZN_6 ZN PSZ-AC DATA CENTER
   Return Air Path Node,Inlet Node,2,DATACENTER_BASEMENT_ZN_6 ZN RETURN AIR NODE,DATACENTER_BASEMENT_ZN_6 ZN PSZ-AC DATA CENTER
 Return Air Path,3,DATACENTER_BOT_ZN_6 ZN PSZ-AC DATA CENTER RETURN PATH,DATACENTER_BOT_ZN_6 ZN PSZ-AC DATA CENTER
   #Components on Return Air Path,1
   Return Air Path Component,1,AIRLOOPHVAC:ZONEMIXER,AIR LOOP HVAC ZONE MIXER 6,DATACENTER_BOT_ZN_6 ZN PSZ-AC DATA CENTER
     #Inlet Nodes on Return Air Path Component,1
     Return Air Path Component Nodes,1,AIRLOOPHVAC:ZONEMIXER,AIR LOOP HVAC ZONE MIXER 6,DATACENTER_BOT_ZN_6 ZN RETURN AIR NODE,DATACENTER_BOT_ZN_6 ZN PSZ-AC DATA CENTER DEMAND OUTLET NODE,DATACENTER_BOT_ZN_6 ZN PSZ-AC DATA CENTER
! <#Nodes on Return Air Path>,<Number of Nodes>
! <Return Air Path Node>,<Node Type>,<Node Count>,<Node Name>,<AirLoopHVAC Name>
   #Nodes on Return Air Path,2
   Return Air Path Node,Outlet Node,1,DATACENTER_BOT_ZN_6 ZN PSZ-AC DATA CENTER DEMAND OUTLET NODE,DATACENTER_BOT_ZN_6 ZN PSZ-AC DATA CENTER
   Return Air Path Node,Inlet Node,2,DATACENTER_BOT_ZN_6 ZN RETURN AIR NODE,DATACENTER_BOT_ZN_6 ZN PSZ-AC DATA CENTER
 Return Air Path,4,DATACENTER_MID_ZN_6 ZN PSZ-AC DATA CENTER RETURN PATH,DATACENTER_MID_ZN_6 ZN PSZ-AC DATA CENTER
   #Components on Return Air Path,1
   Return Air Path Component,1,AIRLOOPHVAC:ZONEMIXER,AIR LOOP HVAC ZONE MIXER 7,DATACENTER_MID_ZN_6 ZN PSZ-AC DATA CENTER
     #Inlet Nodes on Return Air Path Component,1
     Return Air Path Component Nodes,1,AIRLOOPHVAC:ZONEMIXER,AIR LOOP HVAC ZONE MIXER 7,DATACENTER_MID_ZN_6 ZN RETURN AIR NODE,DATACENTER_MID_ZN_6 ZN PSZ-AC DATA CENTER DEMAND OUTLET NODE,DATACENTER_MID_ZN_6 ZN PSZ-AC DATA CENTER
! <#Nodes on Return Air Path>,<Number of Nodes>
! <Return Air Path Node>,<Node Type>,<Node Count>,<Node Name>,<AirLoopHVAC Name>
   #Nodes on Return Air Path,2
   Return Air Path Node,Outlet Node,1,DATACENTER_MID_ZN_6 ZN PSZ-AC DATA CENTER DEMAND OUTLET NODE,DATACENTER_MID_ZN_6 ZN PSZ-AC DATA CENTER
   Return Air Path Node,Inlet Node,2,DATACENTER_MID_ZN_6 ZN RETURN AIR NODE,DATACENTER_MID_ZN_6 ZN PSZ-AC DATA CENTER
 Return Air Path,5,DATACENTER_TOP_ZN_6 ZN PSZ-AC DATA CENTER RETURN PATH,DATACENTER_TOP_ZN_6 ZN PSZ-AC DATA CENTER
   #Components on Return Air Path,1
   Return Air Path Component,1,AIRLOOPHVAC:ZONEMIXER,AIR LOOP HVAC ZONE MIXER 8,DATACENTER_TOP_ZN_6 ZN PSZ-AC DATA CENTER
     #Inlet Nodes on Return Air Path Component,1
     Return Air Path Component Nodes,1,AIRLOOPHVAC:ZONEMIXER,AIR LOOP HVAC ZONE MIXER 8,DATACENTER_TOP_ZN_6 ZN RETURN AIR NODE,DATACENTER_TOP_ZN_6 ZN PSZ-AC DATA CENTER DEMAND OUTLET NODE,DATACENTER_TOP_ZN_6 ZN PSZ-AC DATA CENTER
! <#Nodes on Return Air Path>,<Number of Nodes>
! <Return Air Path Node>,<Node Type>,<Node Count>,<Node Name>,<AirLoopHVAC Name>
   #Nodes on Return Air Path,2
   Return Air Path Node,Outlet Node,1,DATACENTER_TOP_ZN_6 ZN PSZ-AC DATA CENTER DEMAND OUTLET NODE,DATACENTER_TOP_ZN_6 ZN PSZ-AC DATA CENTER
   Return Air Path Node,Inlet Node,2,DATACENTER_TOP_ZN_6 ZN RETURN AIR NODE,DATACENTER_TOP_ZN_6 ZN PSZ-AC DATA CENTER
 Return Air Path,6,VAV_BOT WITH REHEAT RETURN PATH,VAV_BOT WITH REHEAT
   #Components on Return Air Path,2
   Return Air Path Component,1,AIRLOOPHVAC:RETURNPLENUM,AIR LOOP HVAC RETURN PLENUM 1,VAV_BOT WITH REHEAT
   Return Air Path Component,2,AIRLOOPHVAC:ZONEMIXER,AIR LOOP HVAC ZONE MIXER 1,VAV_BOT WITH REHEAT
     #Inlet Nodes on Return Air Path Component,1
     Return Air Path Component Nodes,1,AIRLOOPHVAC:ZONEMIXER,AIR LOOP HVAC ZONE MIXER 1,NODE 88,VAV_BOT WITH REHEAT DEMAND OUTLET NODE,VAV_BOT WITH REHEAT
! <#Nodes on Return Air Path>,<Number of Nodes>
! <Return Air Path Node>,<Node Type>,<Node Count>,<Node Name>,<AirLoopHVAC Name>
   #Nodes on Return Air Path,7
   Return Air Path Node,Outlet Node,1,VAV_BOT WITH REHEAT DEMAND OUTLET NODE,VAV_BOT WITH REHEAT
   Return Air Path Node,Inlet Node,2,NODE 88,VAV_BOT WITH REHEAT
   Return Air Path Node,Inlet Node,3,PERIMETER_BOT_ZN_1 ZN RETURN AIR NODE,VAV_BOT WITH REHEAT
   Return Air Path Node,Inlet Node,4,PERIMETER_BOT_ZN_2 ZN RETURN AIR NODE,VAV_BOT WITH REHEAT
   Return Air Path Node,Inlet Node,5,PERIMETER_BOT_ZN_3 ZN RETURN AIR NODE,VAV_BOT WITH REHEAT
   Return Air Path Node,Inlet Node,6,PERIMETER_BOT_ZN_4 ZN RETURN AIR NODE,VAV_BOT WITH REHEAT
   Return Air Path Node,Inlet Node,7,CORE_BOTTOM ZN RETURN AIR NODE,VAV_BOT WITH REHEAT
 Return Air Path,7,VAV_MID WITH REHEAT RETURN PATH,VAV_MID WITH REHEAT
   #Components on Return Air Path,2
   Return Air Path Component,1,AIRLOOPHVAC:RETURNPLENUM,AIR LOOP HVAC RETURN PLENUM 2,VAV_MID WITH REHEAT
   Return Air Path Component,2,AIRLOOPHVAC:ZONEMIXER,AIR LOOP HVAC ZONE MIXER 2,VAV_MID WITH REHEAT
     #Inlet Nodes on Return Air Path Component,1
     Return Air Path Component Nodes,1,AIRLOOPHVAC:ZONEMIXER,AIR LOOP HVAC ZONE MIXER 2,NODE 127,VAV_MID WITH REHEAT DEMAND OUTLET NODE,VAV_MID WITH REHEAT
! <#Nodes on Return Air Path>,<Number of Nodes>
! <Return Air Path Node>,<Node Type>,<Node Count>,<Node Name>,<AirLoopHVAC Name>
   #Nodes on Return Air Path,7
   Return Air Path Node,Outlet Node,1,VAV_MID WITH REHEAT DEMAND OUTLET NODE,VAV_MID WITH REHEAT
   Return Air Path Node,Inlet Node,2,NODE 127,VAV_MID WITH REHEAT
   Return Air Path Node,Inlet Node,3,PERIMETER_MID_ZN_1 ZN RETURN AIR NODE,VAV_MID WITH REHEAT
   Return Air Path Node,Inlet Node,4,PERIMETER_MID_ZN_2 ZN RETURN AIR NODE,VAV_MID WITH REHEAT
   Return Air Path Node,Inlet Node,5,PERIMETER_MID_ZN_3 ZN RETURN AIR NODE,VAV_MID WITH REHEAT
   Return Air Path Node,Inlet Node,6,PERIMETER_MID_ZN_4 ZN RETURN AIR NODE,VAV_MID WITH REHEAT
   Return Air Path Node,Inlet Node,7,CORE_MID ZN RETURN AIR NODE,VAV_MID WITH REHEAT
 Return Air Path,8,VAV_TOP WITH REHEAT RETURN PATH,VAV_TOP WITH REHEAT
   #Components on Return Air Path,2
   Return Air Path Component,1,AIRLOOPHVAC:RETURNPLENUM,AIR LOOP HVAC RETURN PLENUM 3,VAV_TOP WITH REHEAT
   Return Air Path Component,2,AIRLOOPHVAC:ZONEMIXER,AIR LOOP HVAC ZONE MIXER 3,VAV_TOP WITH REHEAT
     #Inlet Nodes on Return Air Path Component,1
     Return Air Path Component Nodes,1,AIRLOOPHVAC:ZONEMIXER,AIR LOOP HVAC ZONE MIXER 3,NODE 166,VAV_TOP WITH REHEAT DEMAND OUTLET NODE,VAV_TOP WITH REHEAT
! <#Nodes on Return Air Path>,<Number of Nodes>
! <Return Air Path Node>,<Node Type>,<Node Count>,<Node Name>,<AirLoopHVAC Name>
   #Nodes on Return Air Path,7
   Return Air Path Node,Outlet Node,1,VAV_TOP WITH REHEAT DEMAND OUTLET NODE,VAV_TOP WITH REHEAT
   Return Air Path Node,Inlet Node,2,NODE 166,VAV_TOP WITH REHEAT
   Return Air Path Node,Inlet Node,3,PERIMETER_TOP_ZN_1 ZN RETURN AIR NODE,VAV_TOP WITH REHEAT
   Return Air Path Node,Inlet Node,4,PERIMETER_TOP_ZN_2 ZN RETURN AIR NODE,VAV_TOP WITH REHEAT
   Return Air Path Node,Inlet Node,5,PERIMETER_TOP_ZN_3 ZN RETURN AIR NODE,VAV_TOP WITH REHEAT
   Return Air Path Node,Inlet Node,6,PERIMETER_TOP_ZN_4 ZN RETURN AIR NODE,VAV_TOP WITH REHEAT
   Return Air Path Node,Inlet Node,7,CORE_TOP ZN RETURN AIR NODE,VAV_TOP WITH REHEAT
! ===============================================================
! #Outdoor Air Nodes,<Number of Outdoor Air Nodes>
 #Outdoor Air Nodes,9
! <Outdoor Air Node>,<NodeNumber>,<Node Name>
 Outdoor Air Node,265,CAV_BAS OUTDOOR AIR NODE
 Outdoor Air Node,266,DATACENTER_BASEMENT_ZN_6 ZN PSZ-AC DATA CENTER OUTDOOR AIR NODE
 Outdoor Air Node,267,DATACENTER_BOT_ZN_6 ZN PSZ-AC DATA CENTER OUTDOOR AIR NODE
 Outdoor Air Node,268,DATACENTER_MID_ZN_6 ZN PSZ-AC DATA CENTER OUTDOOR AIR NODE
 Outdoor Air Node,269,DATACENTER_TOP_ZN_6 ZN PSZ-AC DATA CENTER OUTDOOR AIR NODE
 Outdoor Air Node,270,VAV_BOT WITH REHEAT OUTDOOR AIR NODE
 Outdoor Air Node,271,VAV_MID WITH REHEAT OUTDOOR AIR NODE
 Outdoor Air Node,272,VAV_TOP WITH REHEAT OUTDOOR AIR NODE
 Outdoor Air Node,273,MODEL OUTDOOR AIR NODE
! ===============================================================
! <#Component Sets>,<Number of Component Sets>
 #Component Sets,164
! <Component Set>,<Component Set Count>,<Parent Object Type>,<Parent Object Name>,<Component Type>,<Component Name>,<Inlet Node ID>,<Outlet Node ID>,<Description>
 Component Set,1,BRANCH,CAV_BAS MAIN BRANCH,AIRLOOPHVAC:OUTDOORAIRSYSTEM,CAV_BAS OA SYSTEM,CAV_BAS SUPPLY INLET NODE,CAV_BAS MIXED AIR NODE,Air Nodes
 Component Set,2,BRANCH,CAV_BAS MAIN BRANCH,COIL:COOLING:WATER,CAV_BAS CLG COIL,CAV_BAS MIXED AIR NODE,CAV_BAS CLG COIL OUTLET AIR NODE,Air Nodes
 Component Set,3,BRANCH,CAV_BAS MAIN BRANCH,COIL:HEATING:WATER,CAV_BAS MAIN HTG COIL,CAV_BAS CLG COIL OUTLET AIR NODE,CAV_BAS MAIN HTG COIL OUTLET AIR NODE,Air Nodes
 Component Set,4,BRANCH,CAV_BAS MAIN BRANCH,FAN:CONSTANTVOLUME,CAV_BAS FAN,CAV_BAS MAIN HTG COIL OUTLET AIR NODE,CAV_BAS SUPPLY OUTLET NODE,Air Nodes
 Component Set,5,BRANCH,DATACENTER_BASEMENT_ZN_6 ZN PSZ-AC DATA CENTER MAIN BRANCH,AIRLOOPHVAC:OUTDOORAIRSYSTEM,DATACENTER_BASEMENT_ZN_6 ZN PSZ-AC DATA CENTER OA SYSTEM,DATACENTER_BASEMENT_ZN_6 ZN PSZ-AC DATA CENTER SUPPLY INLET NODE,DATACENTER_BASEMENT_ZN_6 ZN PSZ-AC DATA CENTER MIXED AIR NODE,Air Nodes
 Component Set,6,BRANCH,DATACENTER_BASEMENT_ZN_6 ZN PSZ-AC DATA CENTER MAIN BRANCH,AIRLOOPHVAC:UNITARYSYSTEM,DATACENTER_BASEMENT_ZN_6 ZN UNITARY HP,DATACENTER_BASEMENT_ZN_6 ZN PSZ-AC DATA CENTER MIXED AIR NODE,DATACENTER_BASEMENT_ZN_6 ZN PSZ-AC DATA CENTER SUPPLY OUTLET NODE,Air Nodes
 Component Set,7,BRANCH,DATACENTER_BOT_ZN_6 ZN PSZ-AC DATA CENTER MAIN BRANCH,AIRLOOPHVAC:OUTDOORAIRSYSTEM,DATACENTER_BOT_ZN_6 ZN PSZ-AC DATA CENTER OA SYSTEM,DATACENTER_BOT_ZN_6 ZN PSZ-AC DATA CENTER SUPPLY INLET NODE,DATACENTER_BOT_ZN_6 ZN PSZ-AC DATA CENTER MIXED AIR NODE,Air Nodes
 Component Set,8,BRANCH,DATACENTER_BOT_ZN_6 ZN PSZ-AC DATA CENTER MAIN BRANCH,AIRLOOPHVAC:UNITARYSYSTEM,DATACENTER_BOT_ZN_6 ZN UNITARY HP,DATACENTER_BOT_ZN_6 ZN PSZ-AC DATA CENTER MIXED AIR NODE,DATACENTER_BOT_ZN_6 ZN PSZ-AC DATA CENTER SUPPLY OUTLET NODE,Air Nodes
 Component Set,9,BRANCH,DATACENTER_MID_ZN_6 ZN PSZ-AC DATA CENTER MAIN BRANCH,AIRLOOPHVAC:OUTDOORAIRSYSTEM,DATACENTER_MID_ZN_6 ZN PSZ-AC DATA CENTER OA SYSTEM,DATACENTER_MID_ZN_6 ZN PSZ-AC DATA CENTER SUPPLY INLET NODE,DATACENTER_MID_ZN_6 ZN PSZ-AC DATA CENTER MIXED AIR NODE,Air Nodes
 Component Set,10,BRANCH,DATACENTER_MID_ZN_6 ZN PSZ-AC DATA CENTER MAIN BRANCH,AIRLOOPHVAC:UNITARYSYSTEM,DATACENTER_MID_ZN_6 ZN UNITARY HP,DATACENTER_MID_ZN_6 ZN PSZ-AC DATA CENTER MIXED AIR NODE,DATACENTER_MID_ZN_6 ZN PSZ-AC DATA CENTER SUPPLY OUTLET NODE,Air Nodes
 Component Set,11,BRANCH,DATACENTER_TOP_ZN_6 ZN PSZ-AC DATA CENTER MAIN BRANCH,AIRLOOPHVAC:OUTDOORAIRSYSTEM,DATACENTER_TOP_ZN_6 ZN PSZ-AC DATA CENTER OA SYSTEM,DATACENTER_TOP_ZN_6 ZN PSZ-AC DATA CENTER SUPPLY INLET NODE,DATACENTER_TOP_ZN_6 ZN PSZ-AC DATA CENTER MIXED AIR NODE,Air Nodes
 Component Set,12,BRANCH,DATACENTER_TOP_ZN_6 ZN PSZ-AC DATA CENTER MAIN BRANCH,AIRLOOPHVAC:UNITARYSYSTEM,DATACENTER_TOP_ZN_6 ZN UNITARY HP,DATACENTER_TOP_ZN_6 ZN PSZ-AC DATA CENTER MIXED AIR NODE,DATACENTER_TOP_ZN_6 ZN PSZ-AC DATA CENTER SUPPLY OUTLET NODE,Air Nodes
 Component Set,13,BRANCH,VAV_BOT WITH REHEAT MAIN BRANCH,AIRLOOPHVAC:OUTDOORAIRSYSTEM,VAV_BOT WITH REHEAT OA SYSTEM,VAV_BOT WITH REHEAT SUPPLY INLET NODE,VAV_BOT WITH REHEAT MIXED AIR NODE,Air Nodes
 Component Set,14,BRANCH,VAV_BOT WITH REHEAT MAIN BRANCH,COIL:COOLING:WATER,VAV_BOT WITH REHEAT CLG COIL,VAV_BOT WITH REHEAT MIXED AIR NODE,VAV_BOT WITH REHEAT CLG COIL OUTLET AIR NODE,Air Nodes
 Component Set,15,BRANCH,VAV_BOT WITH REHEAT MAIN BRANCH,COIL:HEATING:WATER,VAV_BOT WITH REHEAT MAIN HTG COIL,VAV_BOT WITH REHEAT CLG COIL OUTLET AIR NODE,VAV_BOT WITH REHEAT MAIN HTG COIL OUTLET AIR NODE,Air Nodes
 Component Set,16,BRANCH,VAV_BOT WITH REHEAT MAIN BRANCH,FAN:VARIABLEVOLUME,VAV_BOT WITH REHEAT FAN,VAV_BOT WITH REHEAT MAIN HTG COIL OUTLET AIR NODE,VAV_BOT WITH REHEAT SUPPLY OUTLET NODE,Air Nodes
 Component Set,17,BRANCH,VAV_MID WITH REHEAT MAIN BRANCH,AIRLOOPHVAC:OUTDOORAIRSYSTEM,VAV_MID WITH REHEAT OA SYSTEM,VAV_MID WITH REHEAT SUPPLY INLET NODE,VAV_MID WITH REHEAT MIXED AIR NODE,Air Nodes
 Component Set,18,BRANCH,VAV_MID WITH REHEAT MAIN BRANCH,COIL:COOLING:WATER,VAV_MID WITH REHEAT CLG COIL,VAV_MID WITH REHEAT MIXED AIR NODE,VAV_MID WITH REHEAT CLG COIL OUTLET AIR NODE,Air Nodes
 Component Set,19,BRANCH,VAV_MID WITH REHEAT MAIN BRANCH,COIL:HEATING:WATER,VAV_MID WITH REHEAT MAIN HTG COIL,VAV_MID WITH REHEAT CLG COIL OUTLET AIR NODE,VAV_MID WITH REHEAT MAIN HTG COIL OUTLET AIR NODE,Air Nodes
 Component Set,20,BRANCH,VAV_MID WITH REHEAT MAIN BRANCH,FAN:VARIABLEVOLUME,VAV_MID WITH REHEAT FAN,VAV_MID WITH REHEAT MAIN HTG COIL OUTLET AIR NODE,VAV_MID WITH REHEAT SUPPLY OUTLET NODE,Air Nodes
 Component Set,21,BRANCH,VAV_TOP WITH REHEAT MAIN BRANCH,AIRLOOPHVAC:OUTDOORAIRSYSTEM,VAV_TOP WITH REHEAT OA SYSTEM,VAV_TOP WITH REHEAT SUPPLY INLET NODE,VAV_TOP WITH REHEAT MIXED AIR NODE,Air Nodes
 Component Set,22,BRANCH,VAV_TOP WITH REHEAT MAIN BRANCH,COIL:COOLING:WATER,VAV_TOP WITH REHEAT CLG COIL,VAV_TOP WITH REHEAT MIXED AIR NODE,VAV_TOP WITH REHEAT CLG COIL OUTLET AIR NODE,Air Nodes
 Component Set,23,BRANCH,VAV_TOP WITH REHEAT MAIN BRANCH,COIL:HEATING:WATER,VAV_TOP WITH REHEAT MAIN HTG COIL,VAV_TOP WITH REHEAT CLG COIL OUTLET AIR NODE,VAV_TOP WITH REHEAT MAIN HTG COIL OUTLET AIR NODE,Air Nodes
 Component Set,24,BRANCH,VAV_TOP WITH REHEAT MAIN BRANCH,FAN:VARIABLEVOLUME,VAV_TOP WITH REHEAT FAN,VAV_TOP WITH REHEAT MAIN HTG COIL OUTLET AIR NODE,VAV_TOP WITH REHEAT SUPPLY OUTLET NODE,Air Nodes
 Component Set,25,BRANCH,CHILLED WATER LOOP SUPPLY INLET BRANCH,PUMP:CONSTANTSPEED,CHILLED WATER LOOP PRIMARY PUMP,CHILLED WATER LOOP SUPPLY INLET NODE,CHILLED WATER LOOP PRIMARY PUMP OUTLET WATER NODE,Water Nodes
 Component Set,26,BRANCH,CHILLED WATER LOOP SUPPLY BRANCH 1,THERMALSTORAGE:ICE:DETAILED,THERMAL STORAGE ICE DETAILED 1,90.1-2010 WATERCOOLED  CENTRIFUGAL CHILLER 0 618TONS 0.6KW/TON SUPPLY INLET WATER NODE,NODE 1,Chilled Water Nodes
 Component Set,27,BRANCH,CHILLED WATER LOOP SUPPLY BRANCH 1,CHILLER:ELECTRIC:EIR,90.1-2010 WATERCOOLED  CENTRIFUGAL CHILLER 0 618TONS 0.6KW/TON,NODE 1,90.1-2010 WATERCOOLED  CENTRIFUGAL CHILLER 0 618TONS 0.6KW/TON SUPPLY OUTLET WATER NODE,Chilled Water Nodes
 Component Set,28,BRANCH,CHILLED WATER LOOP SUPPLY BRANCH 2,PIPE:ADIABATIC,CHILLED WATER LOOP CHILLER BYPASS,CHILLED WATER LOOP CHILLER BYPASS INLET WATER NODE,CHILLED WATER LOOP CHILLER BYPASS OUTLET WATER NODE,Pipe Nodes
 Component Set,29,BRANCH,CHILLED WATER LOOP SUPPLY OUTLET BRANCH,PIPE:ADIABATIC,CHILLED WATER LOOP SUPPLY OUTLET,CHILLED WATER LOOP SUPPLY OUTLET INLET WATER NODE,CHILLED WATER LOOP SUPPLY OUTLET NODE,Pipe Nodes
 Component Set,30,BRANCH,CHILLED WATER LOOP DEMAND INLET BRANCH,PIPE:ADIABATIC,CHILLED WATER LOOP DEMAND INLET,CHILLED WATER LOOP DEMAND INLET NODE,CHILLED WATER LOOP DEMAND INLET OUTLET WATER NODE,Pipe Nodes
 Component Set,31,BRANCH,CHILLED WATER LOOP DEMAND INLET BRANCH,PUMP:VARIABLESPEED,CHILLED WATER LOOP SECONDARY PUMP,CHILLED WATER LOOP DEMAND INLET OUTLET WATER NODE,CHILLED WATER LOOP SECONDARY PUMP OUTLET WATER NODE,Water Nodes
 Component Set,32,BRANCH,CHILLED WATER LOOP DEMAND BRANCH 1,PIPE:ADIABATIC,CHILLED WATER LOOP COIL BYPASS,CHILLED WATER LOOP COIL BYPASS INLET WATER NODE,CHILLED WATER LOOP COIL BYPASS OUTLET WATER NODE,Pipe Nodes
 Component Set,33,BRANCH,CHILLED WATER LOOP DEMAND BRANCH 2,COIL:COOLING:WATER,VAV_BOT WITH REHEAT CLG COIL,VAV_BOT WITH REHEAT CLG COIL INLET WATER NODE,VAV_BOT WITH REHEAT CLG COIL OUTLET WATER NODE,Water Nodes
 Component Set,34,BRANCH,CHILLED WATER LOOP DEMAND BRANCH 3,COIL:COOLING:WATER,VAV_MID WITH REHEAT CLG COIL,VAV_MID WITH REHEAT CLG COIL INLET WATER NODE,VAV_MID WITH REHEAT CLG COIL OUTLET WATER NODE,Water Nodes
 Component Set,35,BRANCH,CHILLED WATER LOOP DEMAND BRANCH 4,COIL:COOLING:WATER,VAV_TOP WITH REHEAT CLG COIL,VAV_TOP WITH REHEAT CLG COIL INLET WATER NODE,VAV_TOP WITH REHEAT CLG COIL OUTLET WATER NODE,Water Nodes
 Component Set,36,BRANCH,CHILLED WATER LOOP DEMAND BRANCH 5,COIL:COOLING:WATER,CAV_BAS CLG COIL,CAV_BAS CLG COIL INLET WATER NODE,CAV_BAS CLG COIL OUTLET WATER NODE,Water Nodes
 Component Set,37,BRANCH,CHILLED WATER LOOP DEMAND BYPASS BRANCH,PIPE:ADIABATIC,CHILLED WATER LOOP DEMAND BYPASS PIPE,CHILLED WATER LOOP DEMAND BYPASS PIPE INLET NODE,CHILLED WATER LOOP DEMAND BYPASS PIPE OUTLET NODE,Pipe Nodes
 Component Set,38,BRANCH,CHILLED WATER LOOP DEMAND OUTLET BRANCH,PIPE:ADIABATIC,CHILLED WATER LOOP DEMAND OUTLET,CHILLED WATER LOOP DEMAND OUTLET INLET WATER NODE,CHILLED WATER LOOP DEMAND OUTLET NODE,Pipe Nodes
 Component Set,39,BRANCH,CONDENSER WATER LOOP SUPPLY INLET BRANCH,PUMP:CONSTANTSPEED,CONDENSER WATER LOOP CONSTANT PUMP,CONDENSER WATER LOOP SUPPLY INLET NODE,CONDENSER WATER LOOP CONSTANT PUMP OUTLET WATER NODE,Water Nodes
 Component Set,40,BRANCH,CONDENSER WATER LOOP SUPPLY BRANCH 1,COOLINGTOWER:SINGLESPEED,CENTRIFUGAL FAN CYCLING OPEN COOLING TOWER 38.2 GPM/HP,CENTRIFUGAL FAN CYCLING OPEN COOLING TOWER 38.2 GPM/HP INLET WATER NODE,CENTRIFUGAL FAN CYCLING OPEN COOLING TOWER 38.2 GPM/HP OUTLET WATER NODE,Chilled Water Nodes
 Component Set,41,BRANCH,CONDENSER WATER LOOP SUPPLY BRANCH 2,PIPE:ADIABATIC,CONDENSER WATER LOOP COOLING TOWER BYPASS,CONDENSER WATER LOOP COOLING TOWER BYPASS INLET WATER NODE,CONDENSER WATER LOOP COOLING TOWER BYPASS OUTLET WATER NODE,Pipe Nodes
 Component Set,42,BRANCH,CONDENSER WATER LOOP SUPPLY OUTLET BRANCH,PIPE:ADIABATIC,CONDENSER WATER LOOP SUPPLY OUTLET,CONDENSER WATER LOOP SUPPLY OUTLET INLET WATER NODE,CONDENSER WATER LOOP SUPPLY OUTLET NODE,Pipe Nodes
 Component Set,43,BRANCH,CONDENSER WATER LOOP DEMAND INLET BRANCH,PIPE:ADIABATIC,CONDENSER WATER LOOP DEMAND INLET,CONDENSER WATER LOOP DEMAND INLET NODE,CONDENSER WATER LOOP DEMAND INLET OUTLET WATER NODE,Pipe Nodes
 Component Set,44,BRANCH,CONDENSER WATER LOOP DEMAND BRANCH 1,PIPE:ADIABATIC,CONDENSER WATER LOOP CHILLER BYPASS,CONDENSER WATER LOOP CHILLER BYPASS INLET WATER NODE,CONDENSER WATER LOOP CHILLER BYPASS OUTLET WATER NODE,Pipe Nodes
 Component Set,45,BRANCH,CONDENSER WATER LOOP DEMAND BRANCH 2,CHILLER:ELECTRIC:EIR,90.1-2010 WATERCOOLED  CENTRIFUGAL CHILLER 0 618TONS 0.6KW/TON,90.1-2010 WATERCOOLED  CENTRIFUGAL CHILLER 0 618TONS 0.6KW/TON DEMAND INLET WATER NODE,90.1-2010 WATERCOOLED  CENTRIFUGAL CHILLER 0 618TONS 0.6KW/TON DEMAND OUTLET WATER NODE,Condenser Water Nodes
 Component Set,46,BRANCH,CONDENSER WATER LOOP DEMAND BYPASS BRANCH,PIPE:ADIABATIC,CONDENSER WATER LOOP DEMAND BYPASS PIPE,CONDENSER WATER LOOP DEMAND BYPASS PIPE INLET NODE,CONDENSER WATER LOOP DEMAND BYPASS PIPE OUTLET NODE,Pipe Nodes
 Component Set,47,BRANCH,CONDENSER WATER LOOP DEMAND OUTLET BRANCH,PIPE:ADIABATIC,CONDENSER WATER LOOP DEMAND OUTLET,CONDENSER WATER LOOP DEMAND OUTLET INLET WATER NODE,CONDENSER WATER LOOP DEMAND OUTLET NODE,Pipe Nodes
 Component Set,48,BRANCH,HEAT PUMP LOOP SUPPLY INLET BRANCH,PUMP:CONSTANTSPEED,HEAT PUMP LOOP PUMP,HEAT PUMP LOOP SUPPLY INLET NODE,HEAT PUMP LOOP PUMP OUTLET WATER NODE,Water Nodes
 Component Set,49,BRANCH,HEAT PUMP LOOP SUPPLY BRANCH 1,BOILER:HOTWATER,HEAT PUMP LOOP SUPPLEMENTAL BOILER 1530KBTU/HR 0.8 THERMAL EFF,HEAT PUMP LOOP SUPPLEMENTAL BOILER 1530KBTU/HR 0.8 THERMAL EFF INLET WATER NODE,HEAT PUMP LOOP SUPPLEMENTAL BOILER 1530KBTU/HR 0.8 THERMAL EFF OUTLET WATER NODE,Hot Water Nodes
 Component Set,50,BRANCH,HEAT PUMP LOOP SUPPLY BRANCH 2,PIPE:ADIABATIC,HEAT PUMP LOOP SUPPLY BYPASS,HEAT PUMP LOOP SUPPLY BYPASS INLET WATER NODE,HEAT PUMP LOOP SUPPLY BYPASS OUTLET WATER NODE,Pipe Nodes
 Component Set,51,BRANCH,HEAT PUMP LOOP SUPPLY BRANCH 3,COOLINGTOWER:TWOSPEED,HEAT PUMP LOOP CENTRAL TOWER 20.0 GPM/HP,HEAT PUMP LOOP CENTRAL TOWER 20.0 GPM/HP INLET WATER NODE,HEAT PUMP LOOP CENTRAL TOWER 20.0 GPM/HP OUTLET WATER NODE,Chilled Water Nodes
 Component Set,52,BRANCH,HEAT PUMP LOOP SUPPLY OUTLET BRANCH,PIPE:ADIABATIC,HEAT PUMP LOOP SUPPLY OUTLET,HEAT PUMP LOOP SUPPLY OUTLET INLET WATER NODE,HEAT PUMP LOOP SUPPLY OUTLET NODE,Pipe Nodes
 Component Set,53,BRANCH,HEAT PUMP LOOP DEMAND INLET BRANCH,PIPE:ADIABATIC,HEAT PUMP LOOP DEMAND INLET,HEAT PUMP LOOP DEMAND INLET NODE,HEAT PUMP LOOP DEMAND INLET OUTLET WATER NODE,Pipe Nodes
 Component Set,54,BRANCH,HEAT PUMP LOOP DEMAND BRANCH 1,PIPE:ADIABATIC,HEAT PUMP LOOP DEMAND BYPASS,HEAT PUMP LOOP DEMAND BYPASS INLET WATER NODE,HEAT PUMP LOOP DEMAND BYPASS OUTLET WATER NODE,Pipe Nodes
 Component Set,55,BRANCH,HEAT PUMP LOOP DEMAND BRANCH 2,COIL:HEATING:WATERTOAIRHEATPUMP:EQUATIONFIT,DATACENTER_BASEMENT_ZN_6 ZN PSZ-AC DATA CENTER WATER-TO-AIR HP HTG COIL,DATACENTER_BASEMENT_ZN_6 ZN PSZ-AC DATA CENTER WATER-TO-AIR HP HTG COIL INLET WATER NODE,DATACENTER_BASEMENT_ZN_6 ZN PSZ-AC DATA CENTER WATER-TO-AIR HP HTG COIL OUTLET WATER NODE,Water Nodes
 Component Set,56,BRANCH,HEAT PUMP LOOP DEMAND BRANCH 3,COIL:COOLING:WATERTOAIRHEATPUMP:EQUATIONFIT,DATACENTER_BASEMENT_ZN_6 ZN PSZ-AC DATA CENTER WATER-TO-AIR HP CLG COIL,DATACENTER_BASEMENT_ZN_6 ZN PSZ-AC DATA CENTER WATER-TO-AIR HP CLG COIL INLET WATER NODE,DATACENTER_BASEMENT_ZN_6 ZN PSZ-AC DATA CENTER WATER-TO-AIR HP CLG COIL OUTLET WATER NODE,Water Nodes
 Component Set,57,BRANCH,HEAT PUMP LOOP DEMAND BRANCH 4,COIL:HEATING:WATERTOAIRHEATPUMP:EQUATIONFIT,DATACENTER_BOT_ZN_6 ZN PSZ-AC DATA CENTER WATER-TO-AIR HP HTG COIL,DATACENTER_BOT_ZN_6 ZN PSZ-AC DATA CENTER WATER-TO-AIR HP HTG COIL INLET WATER NODE,DATACENTER_BOT_ZN_6 ZN PSZ-AC DATA CENTER WATER-TO-AIR HP HTG COIL OUTLET WATER NODE,Water Nodes
 Component Set,58,BRANCH,HEAT PUMP LOOP DEMAND BRANCH 5,COIL:COOLING:WATERTOAIRHEATPUMP:EQUATIONFIT,DATACENTER_BOT_ZN_6 ZN PSZ-AC DATA CENTER WATER-TO-AIR HP CLG COIL,DATACENTER_BOT_ZN_6 ZN PSZ-AC DATA CENTER WATER-TO-AIR HP CLG COIL INLET WATER NODE,DATACENTER_BOT_ZN_6 ZN PSZ-AC DATA CENTER WATER-TO-AIR HP CLG COIL OUTLET WATER NODE,Water Nodes
 Component Set,59,BRANCH,HEAT PUMP LOOP DEMAND BRANCH 6,COIL:HEATING:WATERTOAIRHEATPUMP:EQUATIONFIT,DATACENTER_MID_ZN_6 ZN PSZ-AC DATA CENTER WATER-TO-AIR HP HTG COIL,DATACENTER_MID_ZN_6 ZN PSZ-AC DATA CENTER WATER-TO-AIR HP HTG COIL INLET WATER NODE,DATACENTER_MID_ZN_6 ZN PSZ-AC DATA CENTER WATER-TO-AIR HP HTG COIL OUTLET WATER NODE,Water Nodes
 Component Set,60,BRANCH,HEAT PUMP LOOP DEMAND BRANCH 7,COIL:COOLING:WATERTOAIRHEATPUMP:EQUATIONFIT,DATACENTER_MID_ZN_6 ZN PSZ-AC DATA CENTER WATER-TO-AIR HP CLG COIL,DATACENTER_MID_ZN_6 ZN PSZ-AC DATA CENTER WATER-TO-AIR HP CLG COIL INLET WATER NODE,DATACENTER_MID_ZN_6 ZN PSZ-AC DATA CENTER WATER-TO-AIR HP CLG COIL OUTLET WATER NODE,Water Nodes
 Component Set,61,BRANCH,HEAT PUMP LOOP DEMAND BRANCH 8,COIL:HEATING:WATERTOAIRHEATPUMP:EQUATIONFIT,DATACENTER_TOP_ZN_6 ZN PSZ-AC DATA CENTER WATER-TO-AIR HP HTG COIL,DATACENTER_TOP_ZN_6 ZN PSZ-AC DATA CENTER WATER-TO-AIR HP HTG COIL INLET WATER NODE,DATACENTER_TOP_ZN_6 ZN PSZ-AC DATA CENTER WATER-TO-AIR HP HTG COIL OUTLET WATER NODE,Water Nodes
 Component Set,62,BRANCH,HEAT PUMP LOOP DEMAND BRANCH 9,COIL:COOLING:WATERTOAIRHEATPUMP:EQUATIONFIT,DATACENTER_TOP_ZN_6 ZN PSZ-AC DATA CENTER WATER-TO-AIR HP CLG COIL,DATACENTER_TOP_ZN_6 ZN PSZ-AC DATA CENTER WATER-TO-AIR HP CLG COIL INLET WATER NODE,DATACENTER_TOP_ZN_6 ZN PSZ-AC DATA CENTER WATER-TO-AIR HP CLG COIL OUTLET WATER NODE,Water Nodes
 Component Set,63,BRANCH,HEAT PUMP LOOP DEMAND BYPASS BRANCH,PIPE:ADIABATIC,HEAT PUMP LOOP DEMAND BYPASS PIPE,HEAT PUMP LOOP DEMAND BYPASS PIPE INLET NODE,HEAT PUMP LOOP DEMAND BYPASS PIPE OUTLET NODE,Pipe Nodes
 Component Set,64,BRANCH,HEAT PUMP LOOP DEMAND OUTLET BRANCH,PIPE:ADIABATIC,HEAT PUMP LOOP DEMAND OUTLET,HEAT PUMP LOOP DEMAND OUTLET INLET WATER NODE,HEAT PUMP LOOP DEMAND OUTLET NODE,Pipe Nodes
 Component Set,65,BRANCH,HOT WATER LOOP SUPPLY INLET BRANCH,PUMP:VARIABLESPEED,HOT WATER LOOP PUMP,HOT WATER LOOP SUPPLY INLET NODE,HOT WATER LOOP PUMP OUTLET WATER NODE,Water Nodes
 Component Set,66,BRANCH,HOT WATER LOOP SUPPLY BRANCH 1,BOILER:HOTWATER,BOILER 6158KBTU/HR 0.8 THERMAL EFF,BOILER 6158KBTU/HR 0.8 THERMAL EFF INLET WATER NODE,BOILER 6158KBTU/HR 0.8 THERMAL EFF OUTLET WATER NODE,Hot Water Nodes
[...]
 Non-Parent Node Connection,VAV_MID WITH REHEAT MAIN HTG COIL OUTLET AIR NODE,FAN:VARIABLEVOLUME,VAV_MID WITH REHEAT FAN,Inlet,1
 Non-Parent Node Connection,VAV_MID WITH REHEAT SUPPLY OUTLET NODE,FAN:VARIABLEVOLUME,VAV_MID WITH REHEAT FAN,Outlet,1
 Non-Parent Node Connection,VAV_TOP WITH REHEAT MAIN HTG COIL OUTLET AIR NODE,FAN:VARIABLEVOLUME,VAV_TOP WITH REHEAT FAN,Inlet,1
 Non-Parent Node Connection,VAV_TOP WITH REHEAT SUPPLY OUTLET NODE,FAN:VARIABLEVOLUME,VAV_TOP WITH REHEAT FAN,Outlet,1
 Non-Parent Node Connection,DATACENTER_BASEMENT_ZN_6 ZN PSZ-AC DATA CENTER MIXED AIR NODE,FAN:ONOFF,DATACENTER_BASEMENT_ZN_6 ZN PSZ-AC DATA CENTER FAN,Inlet,1
 Non-Parent Node Connection,DATACENTER_BASEMENT_ZN_6 ZN UNITARY HP FAN - COOLING COIL NODE,FAN:ONOFF,DATACENTER_BASEMENT_ZN_6 ZN PSZ-AC DATA CENTER FAN,Outlet,1
 Non-Parent Node Connection,DATACENTER_BOT_ZN_6 ZN PSZ-AC DATA CENTER MIXED AIR NODE,FAN:ONOFF,DATACENTER_BOT_ZN_6 ZN PSZ-AC DATA CENTER FAN,Inlet,1
 Non-Parent Node Connection,DATACENTER_BOT_ZN_6 ZN UNITARY HP FAN - COOLING COIL NODE,FAN:ONOFF,DATACENTER_BOT_ZN_6 ZN PSZ-AC DATA CENTER FAN,Outlet,1
 Non-Parent Node Connection,DATACENTER_MID_ZN_6 ZN PSZ-AC DATA CENTER MIXED AIR NODE,FAN:ONOFF,DATACENTER_MID_ZN_6 ZN PSZ-AC DATA CENTER FAN,Inlet,1
 Non-Parent Node Connection,DATACENTER_MID_ZN_6 ZN UNITARY HP FAN - COOLING COIL NODE,FAN:ONOFF,DATACENTER_MID_ZN_6 ZN PSZ-AC DATA CENTER FAN,Outlet,1
 Non-Parent Node Connection,DATACENTER_TOP_ZN_6 ZN PSZ-AC DATA CENTER MIXED AIR NODE,FAN:ONOFF,DATACENTER_TOP_ZN_6 ZN PSZ-AC DATA CENTER FAN,Inlet,1
 Non-Parent Node Connection,DATACENTER_TOP_ZN_6 ZN UNITARY HP FAN - COOLING COIL NODE,FAN:ONOFF,DATACENTER_TOP_ZN_6 ZN PSZ-AC DATA CENTER FAN,Outlet,1
 Non-Parent Node Connection,DATACENTER_BASEMENT_ZN_6 ZN PSZ-AC DATA CENTER WATER-TO-AIR HP CLG COIL INLET WATER NODE,COIL:COOLING:WATERTOAIRHEATPUMP:EQUATIONFIT,DATACENTER_BASEMENT_ZN_6 ZN PSZ-AC DATA CENTER WATER-TO-AIR HP CLG COIL,Inlet,2
 Non-Parent Node Connection,DATACENTER_BASEMENT_ZN_6 ZN PSZ-AC DATA CENTER WATER-TO-AIR HP CLG COIL OUTLET WATER NODE,COIL:COOLING:WATERTOAIRHEATPUMP:EQUATIONFIT,DATACENTER_BASEMENT_ZN_6 ZN PSZ-AC DATA CENTER WATER-TO-AIR HP CLG COIL,Outlet,2
 Non-Parent Node Connection,DATACENTER_BASEMENT_ZN_6 ZN UNITARY HP FAN - COOLING COIL NODE,COIL:COOLING:WATERTOAIRHEATPUMP:EQUATIONFIT,DATACENTER_BASEMENT_ZN_6 ZN PSZ-AC DATA CENTER WATER-TO-AIR HP CLG COIL,Inlet,1
 Non-Parent Node Connection,DATACENTER_BASEMENT_ZN_6 ZN UNITARY HP COOLING COIL - HEATING COIL NODE,COIL:COOLING:WATERTOAIRHEATPUMP:EQUATIONFIT,DATACENTER_BASEMENT_ZN_6 ZN PSZ-AC DATA CENTER WATER-TO-AIR HP CLG COIL,Outlet,1
 Non-Parent Node Connection,DATACENTER_BOT_ZN_6 ZN PSZ-AC DATA CENTER WATER-TO-AIR HP CLG COIL INLET WATER NODE,COIL:COOLING:WATERTOAIRHEATPUMP:EQUATIONFIT,DATACENTER_BOT_ZN_6 ZN PSZ-AC DATA CENTER WATER-TO-AIR HP CLG COIL,Inlet,2
 Non-Parent Node Connection,DATACENTER_BOT_ZN_6 ZN PSZ-AC DATA CENTER WATER-TO-AIR HP CLG COIL OUTLET WATER NODE,COIL:COOLING:WATERTOAIRHEATPUMP:EQUATIONFIT,DATACENTER_BOT_ZN_6 ZN PSZ-AC DATA CENTER WATER-TO-AIR HP CLG COIL,Outlet,2
 Non-Parent Node Connection,DATACENTER_BOT_ZN_6 ZN UNITARY HP FAN - COOLING COIL NODE,COIL:COOLING:WATERTOAIRHEATPUMP:EQUATIONFIT,DATACENTER_BOT_ZN_6 ZN PSZ-AC DATA CENTER WATER-TO-AIR HP CLG COIL,Inlet,1
 Non-Parent Node Connection,DATACENTER_BOT_ZN_6 ZN UNITARY HP COOLING COIL - HEATING COIL NODE,COIL:COOLING:WATERTOAIRHEATPUMP:EQUATIONFIT,DATACENTER_BOT_ZN_6 ZN PSZ-AC DATA CENTER WATER-TO-AIR HP CLG COIL,Outlet,1
 Non-Parent Node Connection,DATACENTER_MID_ZN_6 ZN PSZ-AC DATA CENTER WATER-TO-AIR HP CLG COIL INLET WATER NODE,COIL:COOLING:WATERTOAIRHEATPUMP:EQUATIONFIT,DATACENTER_MID_ZN_6 ZN PSZ-AC DATA CENTER WATER-TO-AIR HP CLG COIL,Inlet,2
 Non-Parent Node Connection,DATACENTER_MID_ZN_6 ZN PSZ-AC DATA CENTER WATER-TO-AIR HP CLG COIL OUTLET WATER NODE,COIL:COOLING:WATERTOAIRHEATPUMP:EQUATIONFIT,DATACENTER_MID_ZN_6 ZN PSZ-AC DATA CENTER WATER-TO-AIR HP CLG COIL,Outlet,2
 Non-Parent Node Connection,DATACENTER_MID_ZN_6 ZN UNITARY HP FAN - COOLING COIL NODE,COIL:COOLING:WATERTOAIRHEATPUMP:EQUATIONFIT,DATACENTER_MID_ZN_6 ZN PSZ-AC DATA CENTER WATER-TO-AIR HP CLG COIL,Inlet,1
 Non-Parent Node Connection,DATACENTER_MID_ZN_6 ZN UNITARY HP COOLING COIL - HEATING COIL NODE,COIL:COOLING:WATERTOAIRHEATPUMP:EQUATIONFIT,DATACENTER_MID_ZN_6 ZN PSZ-AC DATA CENTER WATER-TO-AIR HP CLG COIL,Outlet,1
 Non-Parent Node Connection,DATACENTER_TOP_ZN_6 ZN PSZ-AC DATA CENTER WATER-TO-AIR HP CLG COIL INLET WATER NODE,COIL:COOLING:WATERTOAIRHEATPUMP:EQUATIONFIT,DATACENTER_TOP_ZN_6 ZN PSZ-AC DATA CENTER WATER-TO-AIR HP CLG COIL,Inlet,2
 Non-Parent Node Connection,DATACENTER_TOP_ZN_6 ZN PSZ-AC DATA CENTER WATER-TO-AIR HP CLG COIL OUTLET WATER NODE,COIL:COOLING:WATERTOAIRHEATPUMP:EQUATIONFIT,DATACENTER_TOP_ZN_6 ZN PSZ-AC DATA CENTER WATER-TO-AIR HP CLG COIL,Outlet,2
 Non-Parent Node Connection,DATACENTER_TOP_ZN_6 ZN UNITARY HP FAN - COOLING COIL NODE,COIL:COOLING:WATERTOAIRHEATPUMP:EQUATIONFIT,DATACENTER_TOP_ZN_6 ZN PSZ-AC DATA CENTER WATER-TO-AIR HP CLG COIL,Inlet,1
 Non-Parent Node Connection,DATACENTER_TOP_ZN_6 ZN UNITARY HP COOLING COIL - HEATING COIL NODE,COIL:COOLING:WATERTOAIRHEATPUMP:EQUATIONFIT,DATACENTER_TOP_ZN_6 ZN PSZ-AC DATA CENTER WATER-TO-AIR HP CLG COIL,Outlet,1
 Non-Parent Node Connection,DATACENTER_BASEMENT_ZN_6 ZN PSZ-AC DATA CENTER WATER-TO-AIR HP HTG COIL INLET WATER NODE,COIL:HEATING:WATERTOAIRHEATPUMP:EQUATIONFIT,DATACENTER_BASEMENT_ZN_6 ZN PSZ-AC DATA CENTER WATER-TO-AIR HP HTG COIL,Inlet,2
 Non-Parent Node Connection,DATACENTER_BASEMENT_ZN_6 ZN PSZ-AC DATA CENTER WATER-TO-AIR HP HTG COIL OUTLET WATER NODE,COIL:HEATING:WATERTOAIRHEATPUMP:EQUATIONFIT,DATACENTER_BASEMENT_ZN_6 ZN PSZ-AC DATA CENTER WATER-TO-AIR HP HTG COIL,Outlet,2
 Non-Parent Node Connection,DATACENTER_BASEMENT_ZN_6 ZN UNITARY HP COOLING COIL - HEATING COIL NODE,COIL:HEATING:WATERTOAIRHEATPUMP:EQUATIONFIT,DATACENTER_BASEMENT_ZN_6 ZN PSZ-AC DATA CENTER WATER-TO-AIR HP HTG COIL,Inlet,1
 Non-Parent Node Connection,DATACENTER_BASEMENT_ZN_6 ZN UNITARY HP HEATING COIL - SUPPLEMENTAL COIL NODE,COIL:HEATING:WATERTOAIRHEATPUMP:EQUATIONFIT,DATACENTER_BASEMENT_ZN_6 ZN PSZ-AC DATA CENTER WATER-TO-AIR HP HTG COIL,Outlet,1
 Non-Parent Node Connection,DATACENTER_BOT_ZN_6 ZN PSZ-AC DATA CENTER WATER-TO-AIR HP HTG COIL INLET WATER NODE,COIL:HEATING:WATERTOAIRHEATPUMP:EQUATIONFIT,DATACENTER_BOT_ZN_6 ZN PSZ-AC DATA CENTER WATER-TO-AIR HP HTG COIL,Inlet,2
 Non-Parent Node Connection,DATACENTER_BOT_ZN_6 ZN PSZ-AC DATA CENTER WATER-TO-AIR HP HTG COIL OUTLET WATER NODE,COIL:HEATING:WATERTOAIRHEATPUMP:EQUATIONFIT,DATACENTER_BOT_ZN_6 ZN PSZ-AC DATA CENTER WATER-TO-AIR HP HTG COIL,Outlet,2
 Non-Parent Node Connection,DATACENTER_BOT_ZN_6 ZN UNITARY HP COOLING COIL - HEATING COIL NODE,COIL:HEATING:WATERTOAIRHEATPUMP:EQUATIONFIT,DATACENTER_BOT_ZN_6 ZN PSZ-AC DATA CENTER WATER-TO-AIR HP HTG COIL,Inlet,1
 Non-Parent Node Connection,DATACENTER_BOT_ZN_6 ZN UNITARY HP HEATING COIL - SUPPLEMENTAL COIL NODE,COIL:HEATING:WATERTOAIRHEATPUMP:EQUATIONFIT,DATACENTER_BOT_ZN_6 ZN PSZ-AC DATA CENTER WATER-TO-AIR HP HTG COIL,Outlet,1
 Non-Parent Node Connection,DATACENTER_MID_ZN_6 ZN PSZ-AC DATA CENTER WATER-TO-AIR HP HTG COIL INLET WATER NODE,COIL:HEATING:WATERTOAIRHEATPUMP:EQUATIONFIT,DATACENTER_MID_ZN_6 ZN PSZ-AC DATA CENTER WATER-TO-AIR HP HTG COIL,Inlet,2
 Non-Parent Node Connection,DATACENTER_MID_ZN_6 ZN PSZ-AC DATA CENTER WATER-TO-AIR HP HTG COIL OUTLET WATER NODE,COIL:HEATING:WATERTOAIRHEATPUMP:EQUATIONFIT,DATACENTER_MID_ZN_6 ZN PSZ-AC DATA CENTER WATER-TO-AIR HP HTG COIL,Outlet,2
 Non-Parent Node Connection,DATACENTER_MID_ZN_6 ZN UNITARY HP COOLING COIL - HEATING COIL NODE,COIL:HEATING:WATERTOAIRHEATPUMP:EQUATIONFIT,DATACENTER_MID_ZN_6 ZN PSZ-AC DATA CENTER WATER-TO-AIR HP HTG COIL,Inlet,1
 Non-Parent Node Connection,DATACENTER_MID_ZN_6 ZN UNITARY HP HEATING COIL - SUPPLEMENTAL COIL NODE,COIL:HEATING:WATERTOAIRHEATPUMP:EQUATIONFIT,DATACENTER_MID_ZN_6 ZN PSZ-AC DATA CENTER WATER-TO-AIR HP HTG COIL,Outlet,1
 Non-Parent Node Connection,DATACENTER_TOP_ZN_6 ZN PSZ-AC DATA CENTER WATER-TO-AIR HP HTG COIL INLET WATER NODE,COIL:HEATING:WATERTOAIRHEATPUMP:EQUATIONFIT,DATACENTER_TOP_ZN_6 ZN PSZ-AC DATA CENTER WATER-TO-AIR HP HTG COIL,Inlet,2
 Non-Parent Node Connection,DATACENTER_TOP_ZN_6 ZN PSZ-AC DATA CENTER WATER-TO-AIR HP HTG COIL OUTLET WATER NODE,COIL:HEATING:WATERTOAIRHEATPUMP:EQUATIONFIT,DATACENTER_TOP_ZN_6 ZN PSZ-AC DATA CENTER WATER-TO-AIR HP HTG COIL,Outlet,2
 Non-Parent Node Connection,DATACENTER_TOP_ZN_6 ZN UNITARY HP COOLING COIL - HEATING COIL NODE,COIL:HEATING:WATERTOAIRHEATPUMP:EQUATIONFIT,DATACENTER_TOP_ZN_6 ZN PSZ-AC DATA CENTER WATER-TO-AIR HP HTG COIL,Inlet,1
 Non-Parent Node Connection,DATACENTER_TOP_ZN_6 ZN UNITARY HP HEATING COIL - SUPPLEMENTAL COIL NODE,COIL:HEATING:WATERTOAIRHEATPUMP:EQUATIONFIT,DATACENTER_TOP_ZN_6 ZN PSZ-AC DATA CENTER WATER-TO-AIR HP HTG COIL,Outlet,1
 Non-Parent Node Connection,DATACENTER_BASEMENT_ZN_6 ZN UNITARY HP HEATING COIL - SUPPLEMENTAL COIL NODE,COIL:HEATING:ELECTRIC,DATACENTER_BASEMENT_ZN_6 ZN PSZ-AC DATA CENTER ELECTRIC BACKUP HTG COIL,Inlet,1
 Non-Parent Node Connection,DATACENTER_BASEMENT_ZN_6 ZN PSZ-AC DATA CENTER SUPPLY OUTLET NODE,COIL:HEATING:ELECTRIC,DATACENTER_BASEMENT_ZN_6 ZN PSZ-AC DATA CENTER ELECTRIC BACKUP HTG COIL,Outlet,1
 Non-Parent Node Connection,DATACENTER_BOT_ZN_6 ZN UNITARY HP HEATING COIL - SUPPLEMENTAL COIL NODE,COIL:HEATING:ELECTRIC,DATACENTER_BOT_ZN_6 ZN PSZ-AC DATA CENTER ELECTRIC BACKUP HTG COIL,Inlet,1
 Non-Parent Node Connection,DATACENTER_BOT_ZN_6 ZN PSZ-AC DATA CENTER SUPPLY OUTLET NODE,COIL:HEATING:ELECTRIC,DATACENTER_BOT_ZN_6 ZN PSZ-AC DATA CENTER ELECTRIC BACKUP HTG COIL,Outlet,1
 Non-Parent Node Connection,DATACENTER_MID_ZN_6 ZN UNITARY HP HEATING COIL - SUPPLEMENTAL COIL NODE,COIL:HEATING:ELECTRIC,DATACENTER_MID_ZN_6 ZN PSZ-AC DATA CENTER ELECTRIC BACKUP HTG COIL,Inlet,1
 Non-Parent Node Connection,DATACENTER_MID_ZN_6 ZN PSZ-AC DATA CENTER SUPPLY OUTLET NODE,COIL:HEATING:ELECTRIC,DATACENTER_MID_ZN_6 ZN PSZ-AC DATA CENTER ELECTRIC BACKUP HTG COIL,Outlet,1
 Non-Parent Node Connection,DATACENTER_TOP_ZN_6 ZN UNITARY HP HEATING COIL - SUPPLEMENTAL COIL NODE,COIL:HEATING:ELECTRIC,DATACENTER_TOP_ZN_6 ZN PSZ-AC DATA CENTER ELECTRIC BACKUP HTG COIL,Inlet,1
 Non-Parent Node Connection,DATACENTER_TOP_ZN_6 ZN PSZ-AC DATA CENTER SUPPLY OUTLET NODE,COIL:HEATING:ELECTRIC,DATACENTER_TOP_ZN_6 ZN PSZ-AC DATA CENTER ELECTRIC BACKUP HTG COIL,Outlet,1
 Non-Parent Node Connection,CAV_BAS MIXED AIR NODE,CONTROLLER:OUTDOORAIR,CAV_BAS OA CONTROLLER,Sensor,1
 Non-Parent Node Connection,CAV_BAS OUTDOOR AIR NODE,CONTROLLER:OUTDOORAIR,CAV_BAS OA CONTROLLER,Actuator,1
 Non-Parent Node Connection,CAV_BAS RELIEF AIR NODE,CONTROLLER:OUTDOORAIR,CAV_BAS OA CONTROLLER,Actuator,1
 Non-Parent Node Connection,CAV_BAS SUPPLY INLET NODE,CONTROLLER:OUTDOORAIR,CAV_BAS OA CONTROLLER,Sensor,1
 Non-Parent Node Connection,DATACENTER_BASEMENT_ZN_6 ZN PSZ-AC DATA CENTER MIXED AIR NODE,CONTROLLER:OUTDOORAIR,DATACENTER_BASEMENT_ZN_6 ZN PSZ-AC DATA CENTER OA SYSTEM CONTROLLER,Sensor,1
 Non-Parent Node Connection,DATACENTER_BASEMENT_ZN_6 ZN PSZ-AC DATA CENTER OUTDOOR AIR NODE,CONTROLLER:OUTDOORAIR,DATACENTER_BASEMENT_ZN_6 ZN PSZ-AC DATA CENTER OA SYSTEM CONTROLLER,Actuator,1
 Non-Parent Node Connection,DATACENTER_BASEMENT_ZN_6 ZN PSZ-AC DATA CENTER RELIEF AIR NODE,CONTROLLER:OUTDOORAIR,DATACENTER_BASEMENT_ZN_6 ZN PSZ-AC DATA CENTER OA SYSTEM CONTROLLER,Actuator,1
 Non-Parent Node Connection,DATACENTER_BASEMENT_ZN_6 ZN PSZ-AC DATA CENTER SUPPLY INLET NODE,CONTROLLER:OUTDOORAIR,DATACENTER_BASEMENT_ZN_6 ZN PSZ-AC DATA CENTER OA SYSTEM CONTROLLER,Sensor,1
 Non-Parent Node Connection,DATACENTER_BOT_ZN_6 ZN PSZ-AC DATA CENTER MIXED AIR NODE,CONTROLLER:OUTDOORAIR,DATACENTER_BOT_ZN_6 ZN PSZ-AC DATA CENTER OA SYSTEM CONTROLLER,Sensor,1
 Non-Parent Node Connection,DATACENTER_BOT_ZN_6 ZN PSZ-AC DATA CENTER OUTDOOR AIR NODE,CONTROLLER:OUTDOORAIR,DATACENTER_BOT_ZN_6 ZN PSZ-AC DATA CENTER OA SYSTEM CONTROLLER,Actuator,1
 Non-Parent Node Connection,DATACENTER_BOT_ZN_6 ZN PSZ-AC DATA CENTER RELIEF AIR NODE,CONTROLLER:OUTDOORAIR,DATACENTER_BOT_ZN_6 ZN PSZ-AC DATA CENTER OA SYSTEM CONTROLLER,Actuator,1
 Non-Parent Node Connection,DATACENTER_BOT_ZN_6 ZN PSZ-AC DATA CENTER SUPPLY INLET NODE,CONTROLLER:OUTDOORAIR,DATACENTER_BOT_ZN_6 ZN PSZ-AC DATA CENTER OA SYSTEM CONTROLLER,Sensor,1
 Non-Parent Node Connection,DATACENTER_MID_ZN_6 ZN PSZ-AC DATA CENTER MIXED AIR NODE,CONTROLLER:OUTDOORAIR,DATACENTER_MID_ZN_6 ZN PSZ-AC DATA CENTER OA SYSTEM CONTROLLER,Sensor,1
 Non-Parent Node Connection,DATACENTER_MID_ZN_6 ZN PSZ-AC DATA CENTER OUTDOOR AIR NODE,CONTROLLER:OUTDOORAIR,DATACENTER_MID_ZN_6 ZN PSZ-AC DATA CENTER OA SYSTEM CONTROLLER,Actuator,1
 Non-Parent Node Connection,DATACENTER_MID_ZN_6 ZN PSZ-AC DATA CENTER RELIEF AIR NODE,CONTROLLER:OUTDOORAIR,DATACENTER_MID_ZN_6 ZN PSZ-AC DATA CENTER OA SYSTEM CONTROLLER,Actuator,1
 Non-Parent Node Connection,DATACENTER_MID_ZN_6 ZN PSZ-AC DATA CENTER SUPPLY INLET NODE,CONTROLLER:OUTDOORAIR,DATACENTER_MID_ZN_6 ZN PSZ-AC DATA CENTER OA SYSTEM CONTROLLER,Sensor,1
 Non-Parent Node Connection,DATACENTER_TOP_ZN_6 ZN PSZ-AC DATA CENTER MIXED AIR NODE,CONTROLLER:OUTDOORAIR,DATACENTER_TOP_ZN_6 ZN PSZ-AC DATA CENTER OA SYSTEM CONTROLLER,Sensor,1
 Non-Parent Node Connection,DATACENTER_TOP_ZN_6 ZN PSZ-AC DATA CENTER OUTDOOR AIR NODE,CONTROLLER:OUTDOORAIR,DATACENTER_TOP_ZN_6 ZN PSZ-AC DATA CENTER OA SYSTEM CONTROLLER,Actuator,1
 Non-Parent Node Connection,DATACENTER_TOP_ZN_6 ZN PSZ-AC DATA CENTER RELIEF AIR NODE,CONTROLLER:OUTDOORAIR,DATACENTER_TOP_ZN_6 ZN PSZ-AC DATA CENTER OA SYSTEM CONTROLLER,Actuator,1
 Non-Parent Node Connection,DATACENTER_TOP_ZN_6 ZN PSZ-AC DATA CENTER SUPPLY INLET NODE,CONTROLLER:OUTDOORAIR,DATACENTER_TOP_ZN_6 ZN PSZ-AC DATA CENTER OA SYSTEM CONTROLLER,Sensor,1
 Non-Parent Node Connection,VAV_BOT WITH REHEAT MIXED AIR NODE,CONTROLLER:OUTDOORAIR,VAV_BOT WITH REHEAT OA CONTROLLER,Sensor,1
 Non-Parent Node Connection,VAV_BOT WITH REHEAT OUTDOOR AIR NODE,CONTROLLER:OUTDOORAIR,VAV_BOT WITH REHEAT OA CONTROLLER,Actuator,1
 Non-Parent Node Connection,VAV_BOT WITH REHEAT RELIEF AIR NODE,CONTROLLER:OUTDOORAIR,VAV_BOT WITH REHEAT OA CONTROLLER,Actuator,1
 Non-Parent Node Connection,VAV_BOT WITH REHEAT SUPPLY INLET NODE,CONTROLLER:OUTDOORAIR,VAV_BOT WITH REHEAT OA CONTROLLER,Sensor,1
 Non-Parent Node Connection,VAV_MID WITH REHEAT MIXED AIR NODE,CONTROLLER:OUTDOORAIR,VAV_MID WITH REHEAT OA CONTROLLER,Sensor,1
 Non-Parent Node Connection,VAV_MID WITH REHEAT OUTDOOR AIR NODE,CONTROLLER:OUTDOORAIR,VAV_MID WITH REHEAT OA CONTROLLER,Actuator,1
 Non-Parent Node Connection,VAV_MID WITH REHEAT ERV SECONDARY INLET AIR NODE,CONTROLLER:OUTDOORAIR,VAV_MID WITH REHEAT OA CONTROLLER,Actuator,1
 Non-Parent Node Connection,VAV_MID WITH REHEAT SUPPLY INLET NODE,CONTROLLER:OUTDOORAIR,VAV_MID WITH REHEAT OA CONTROLLER,Sensor,1
 Non-Parent Node Connection,VAV_TOP WITH REHEAT MIXED AIR NODE,CONTROLLER:OUTDOORAIR,VAV_TOP WITH REHEAT OA CONTROLLER,Sensor,1
 Non-Parent Node Connection,VAV_TOP WITH REHEAT OUTDOOR AIR NODE,CONTROLLER:OUTDOORAIR,VAV_TOP WITH REHEAT OA CONTROLLER,Actuator,1
 Non-Parent Node Connection,VAV_TOP WITH REHEAT RELIEF AIR NODE,CONTROLLER:OUTDOORAIR,VAV_TOP WITH REHEAT OA CONTROLLER,Actuator,1
 Non-Parent Node Connection,VAV_TOP WITH REHEAT SUPPLY INLET NODE,CONTROLLER:OUTDOORAIR,VAV_TOP WITH REHEAT OA CONTROLLER,Sensor,1
 Non-Parent Node Connection,VAV_MID WITH REHEAT OUTDOOR AIR NODE,HEATEXCHANGER:AIRTOAIR:SENSIBLEANDLATENT,VAV_MID WITH REHEAT ERV,Inlet,1
 Non-Parent Node Connection,VAV_MID WITH REHEAT ERV PRIMARY OUTLET AIR NODE,HEATEXCHANGER:AIRTOAIR:SENSIBLEANDLATENT,VAV_MID WITH REHEAT ERV,Outlet,1
 Non-Parent Node Connection,VAV_MID WITH REHEAT ERV SECONDARY INLET AIR NODE,HEATEXCHANGER:AIRTOAIR:SENSIBLEANDLATENT,VAV_MID WITH REHEAT ERV,Inlet,2
 Non-Parent Node Connection,VAV_MID WITH REHEAT RELIEF AIR NODE,HEATEXCHANGER:AIRTOAIR:SENSIBLEANDLATENT,VAV_MID WITH REHEAT ERV,Outlet,2
 Non-Parent Node Connection,NODE 1,CHILLER:ELECTRIC:EIR,90.1-2010 WATERCOOLED  CENTRIFUGAL CHILLER 0 618TONS 0.6KW/TON,Inlet,1
 Non-Parent Node Connection,90.1-2010 WATERCOOLED  CENTRIFUGAL CHILLER 0 618TONS 0.6KW/TON SUPPLY OUTLET WATER NODE,CHILLER:ELECTRIC:EIR,90.1-2010 WATERCOOLED  CENTRIFUGAL CHILLER 0 618TONS 0.6KW/TON,Outlet,1
 Non-Parent Node Connection,90.1-2010 WATERCOOLED  CENTRIFUGAL CHILLER 0 618TONS 0.6KW/TON DEMAND INLET WATER NODE,CHILLER:ELECTRIC:EIR,90.1-2010 WATERCOOLED  CENTRIFUGAL CHILLER 0 618TONS 0.6KW/TON,Inlet,2
 Non-Parent Node Connection,90.1-2010 WATERCOOLED  CENTRIFUGAL CHILLER 0 618TONS 0.6KW/TON DEMAND OUTLET WATER NODE,CHILLER:ELECTRIC:EIR,90.1-2010 WATERCOOLED  CENTRIFUGAL CHILLER 0 618TONS 0.6KW/TON,Outlet,2
 Non-Parent Node Connection,90.1-2010 WATERCOOLED  CENTRIFUGAL CHILLER 0 618TONS 0.6KW/TON SUPPLY INLET WATER NODE,THERMALSTORAGE:ICE:DETAILED,THERMAL STORAGE ICE DETAILED 1,Inlet,1
 Non-Parent Node Connection,NODE 1,THERMALSTORAGE:ICE:DETAILED,THERMAL STORAGE ICE DETAILED 1,Outlet,1
 Non-Parent Node Connection,CENTRIFUGAL FAN CYCLING OPEN COOLING TOWER 38.2 GPM/HP INLET WATER NODE,COOLINGTOWER:SINGLESPEED,CENTRIFUGAL FAN CYCLING OPEN COOLING TOWER 38.2 GPM/HP,Inlet,1
 Non-Parent Node Connection,CENTRIFUGAL FAN CYCLING OPEN COOLING TOWER 38.2 GPM/HP OUTLET WATER NODE,COOLINGTOWER:SINGLESPEED,CENTRIFUGAL FAN CYCLING OPEN COOLING TOWER 38.2 GPM/HP,Outlet,1
 Non-Parent Node Connection,HEAT PUMP LOOP CENTRAL TOWER 20.0 GPM/HP INLET WATER NODE,COOLINGTOWER:TWOSPEED,HEAT PUMP LOOP CENTRAL TOWER 20.0 GPM/HP,Inlet,1
 Non-Parent Node Connection,HEAT PUMP LOOP CENTRAL TOWER 20.0 GPM/HP OUTLET WATER NODE,COOLINGTOWER:TWOSPEED,HEAT PUMP LOOP CENTRAL TOWER 20.0 GPM/HP,Outlet,1
 Non-Parent Node Connection,HEAT PUMP LOOP SUPPLEMENTAL BOILER 1530KBTU/HR 0.8 THERMAL EFF INLET WATER NODE,BOILER:HOTWATER,HEAT PUMP LOOP SUPPLEMENTAL BOILER 1530KBTU/HR 0.8 THERMAL EFF,Inlet,1
 Non-Parent Node Connection,HEAT PUMP LOOP SUPPLEMENTAL BOILER 1530KBTU/HR 0.8 THERMAL EFF OUTLET WATER NODE,BOILER:HOTWATER,HEAT PUMP LOOP SUPPLEMENTAL BOILER 1530KBTU/HR 0.8 THERMAL EFF,Outlet,1
 Non-Parent Node Connection,BOILER 6158KBTU/HR 0.8 THERMAL EFF INLET WATER NODE,BOILER:HOTWATER,BOILER 6158KBTU/HR 0.8 THERMAL EFF,Inlet,1
 Non-Parent Node Connection,BOILER 6158KBTU/HR 0.8 THERMAL EFF OUTLET WATER NODE,BOILER:HOTWATER,BOILER 6158KBTU/HR 0.8 THERMAL EFF,Outlet,1
 Non-Parent Node Connection,CHILLED WATER LOOP DEMAND INLET OUTLET WATER NODE,PUMP:VARIABLESPEED,CHILLED WATER LOOP SECONDARY PUMP,Inlet,1
 Non-Parent Node Connection,CHILLED WATER LOOP SECONDARY PUMP OUTLET WATER NODE,PUMP:VARIABLESPEED,CHILLED WATER LOOP SECONDARY PUMP,Outlet,1
 Non-Parent Node Connection,HOT WATER LOOP SUPPLY INLET NODE,PUMP:VARIABLESPEED,HOT WATER LOOP PUMP,Inlet,1
 Non-Parent Node Connection,HOT WATER LOOP PUMP OUTLET WATER NODE,PUMP:VARIABLESPEED,HOT WATER LOOP PUMP,Outlet,1
 Non-Parent Node Connection,CHILLED WATER LOOP SUPPLY INLET NODE,PUMP:CONSTANTSPEED,CHILLED WATER LOOP PRIMARY PUMP,Inlet,1
 Non-Parent Node Connection,CHILLED WATER LOOP PRIMARY PUMP OUTLET WATER NODE,PUMP:CONSTANTSPEED,CHILLED WATER LOOP PRIMARY PUMP,Outlet,1
 Non-Parent Node Connection,CONDENSER WATER LOOP SUPPLY INLET NODE,PUMP:CONSTANTSPEED,CONDENSER WATER LOOP CONSTANT PUMP,Inlet,1
 Non-Parent Node Connection,CONDENSER WATER LOOP CONSTANT PUMP OUTLET WATER NODE,PUMP:CONSTANTSPEED,CONDENSER WATER LOOP CONSTANT PUMP,Outlet,1
 Non-Parent Node Connection,HEAT PUMP LOOP SUPPLY INLET NODE,PUMP:CONSTANTSPEED,HEAT PUMP LOOP PUMP,Inlet,1
 Non-Parent Node Connection,HEAT PUMP LOOP PUMP OUTLET WATER NODE,PUMP:CONSTANTSPEED,HEAT PUMP LOOP PUMP,Outlet,1
 Non-Parent Node Connection,MAIN SERVICE WATER LOOP SUPPLY INLET NODE,PUMP:CONSTANTSPEED,MAIN SERVICE WATER LOOP CIRCULATOR PUMP,Inlet,1
 Non-Parent Node Connection,MAIN SERVICE WATER LOOP CIRCULATOR PUMP OUTLET WATER NODE,PUMP:CONSTANTSPEED,MAIN SERV